#------------------------------------------------------------------------------
#$Date: 2016-02-18 17:37:37 +0200 (Thu, 18 Feb 2016) $
#$Revision: 176729 $
#$URL: svn://www.crystallography.net/cod/cif/1/50/16/1501688.cif $
#------------------------------------------------------------------------------
#
# This file is available in the Crystallography Open Database (COD),
# http://www.crystallography.net/
#
# All data on this site have been placed in the public domain by the
# contributors.
#
data_1501688
loop_
_publ_author_name
'Migliorati, Valentina'
'Ballirano, Paolo'
'Gontrani, Lorenzo'
'Triolo, Alessandro'
'Caminiti, Ruggero'
_publ_section_title
;
 Thermal and structural properties of ethylammonium chloride and its
 mixture with water.
;
_journal_issue                   17
_journal_name_full               'The journal of physical chemistry. B'
_journal_page_first              4887
_journal_page_last               4899
_journal_paper_doi               10.1021/jp2010138
_journal_volume                  115
_journal_year                    2011
_chemical_formula_sum            'C2 H8 Cl N'
_chemical_formula_weight         81.55
_chemical_name_systematic        ' ?'
_space_group_IT_number           11
_symmetry_cell_setting           monoclinic
_symmetry_space_group_name_Hall  '-P 2yb'
_symmetry_space_group_name_H-M   'P 1 21/m 1'
_audit_creation_date             2010-05-18T16:07
_audit_creation_method           'from EXP file using GSAS2CIF'
_audit_update_record
' 2010-05-18T16:07  Initial CIF as created by GSAS2CIF'
_cell_angle_alpha                90.0
_cell_angle_beta                 93.9367(14)
_cell_angle_gamma                90.0
_cell_formula_units_Z            2
_cell_length_a                   8.22307(14)
_cell_length_b                   5.99899(8)
_cell_length_c                   4.55113(7)
_cell_volume                     223.978(6)
_computing_structure_refinement  GSAS
_diffrn_radiation_probe          x-ray
_exptl_absorpt_correction_T_max  0.77480
_exptl_absorpt_correction_T_min  0.76997
_exptl_absorpt_process_details
;   GSAS Absorption/surface roughness correction: function number 0
 Debye-Scherrer absorption correction
Term (= MU.r/wave) =     0.10041    
Correction is not refined.
;
_pd_block_id
2010-05-18T16:07|45_OPT|paolo|Bruker_AXS_D8_Advance
_pd_calc_method                  'Rietveld Refinement'
_pd_instr_location               ' ?'
_pd_meas_2theta_range_inc        0.022
_pd_meas_2theta_range_max        89.994
_pd_meas_2theta_range_min        8.0
_pd_meas_number_of_points        3728
_pd_phase_name                   ethyl
_pd_proc_2theta_range_inc        0.022
_pd_proc_2theta_range_max        89.994
_pd_proc_2theta_range_min        8.0
_pd_proc_info_datetime           2010-05-18T16:07:46
_pd_proc_info_excluded_regions   ' ?'
_pd_proc_ls_background_function
;   GSAS Background function number 1 with 30 terms.
 Shifted Chebyshev function of 1st kind
      1:    487.537     2:   -441.416     3:    236.394     4:   -107.318    
      5:    69.2992     6:   -69.5363     7:    84.2403     8:   -62.3309    
      9:    20.9690    10:    8.49184    11:   -9.32216    12:   -2.14617    
     13:    17.4721    14:   -23.3595    15:    18.1878    16:   -8.15212    
     17:    5.58151    18:   -8.92976    19:    12.1399    20:   -11.8725    
     21:    11.4520    22:   -5.88105    23:    6.94055    24:   -1.38336    
     25:   0.377861    26:    2.81495    27:    1.05993    28:  -0.231921    
     29:   -1.81743    30:    2.74979    
;
_pd_proc_ls_peak_cutoff          0.00100
_pd_proc_ls_profile_function
;
 CW Profile function number 3 with  19 terms
 Pseudovoigt profile coefficients as parameterized in
 P. Thompson, D.E. Cox & J.B. Hastings (1987). J. Appl. Cryst.,20,79-83.
 Asymmetry correction of L.W. Finger, D.E. Cox & A. P. Jephcoat (1994).
 J. Appl. Cryst.,27,892-900.
 Peak tails are ignored  where the intensity is below 0.0010 times the peak
   Aniso. broadening axis   0.0   1.0   0.0
;
_pd_proc_ls_prof_R_factor        0.0457
_pd_proc_ls_prof_wR_expected     0.0426
_pd_proc_ls_prof_wR_factor       0.0603
_pd_proc_number_of_points        3728
_pd_spec_mounting                ' ?'
_refine_ls_goodness_of_fit_all   1.42
_refine_ls_matrix_type           full
_refine_ls_number_parameters     63
_refine_ls_number_restraints     27
_refine_ls_R_Fsqd_factor         0.06281
_refine_ls_shift/su_max          0.07
_refine_ls_shift/su_mean         0.00
_reflns_d_resolution_high        1.092
_reflns_d_resolution_low         8.204
_reflns_limit_h_max              7
_reflns_limit_h_min              0
_reflns_limit_k_max              5
_reflns_limit_k_min              0
_reflns_limit_l_max              4
_reflns_limit_l_min              -4
_reflns_number_total             407
_cod_data_source_file            jp2010138_si_004.cif
_cod_data_source_block           45_OPT_publ
_cod_depositor_comments
;
The following automatic conversions were performed:

'_geom_bond_publ_flag' value 'N' changed to 'n' according to
/home/saulius/struct/CIF-dictionaries/cif_core.dic dictionary named
'cif_core.dic' version 2.4.1 from 2010-06-29 (47
times).

'_geom_angle_publ_flag' value 'N' changed to 'n' according
to /home/saulius/struct/CIF-dictionaries/cif_core.dic dictionary
named 'cif_core.dic' version 2.4.1 from 2010-06-29 (23 times).

Automatic conversion script
Id: cif_fix_values 1715 2011-07-08 13:25:40Z adriana 
;
_cod_original_sg_symbol_H-M      'p 21/m'
_cod_database_code               1501688
#BEGIN Tags that were not found in dictionaries:
_gsas_exptl_extinct_corr_t_min   1.00000
_gsas_exptl_extinct_corr_t_max   1.00000
#END Tags that were not found in dictionaries
loop_
_symmetry_equiv_pos_site_id
_symmetry_equiv_pos_as_xyz
1 +x,+y,+z
2 -x,+y+1/2,-z
-1 -x,-y,-z
-2 +x,-y+1/2,+z
loop_
_atom_site_type_symbol
_atom_site_label
_atom_site_fract_x
_atom_site_fract_y
_atom_site_fract_z
_atom_site_occupancy
_atom_site_thermal_displace_type
_atom_site_U_iso_or_equiv
_atom_site_symmetry_multiplicity
Cl Cl 0.15509(20) 0.75 0.3855(4) 1.0 Uiso 0.0276(4) 2
N N 0.12528(33) 0.25 0.1431(6) 1.0 Uiso 0.0345(11) 2
C C1 0.26665(31) 0.25 -0.0361(6) 1.0 Uiso 0.0345(11) 2
C C2 0.4226(4) 0.25 0.1692(7) 1.0 Uiso 0.0345(11) 2
H H1 0.0244(5) 0.25 0.0152(13) 1.0 Uiso 0.0518(17) 2
H H2 0.5172(5) 0.25 0.0496(12) 1.0 Uiso 0.0518(17) 2
H H3 0.1279(9) 0.1168(5) 0.2682(9) 1.0 Uiso 0.0518(17) 4
H H4 0.2656(8) 0.1160(5) -0.1592(9) 1.0 Uiso 0.0518(17) 4
H H5 0.4243(9) 0.1161(5) 0.2930(9) 1.0 Uiso 0.0518(17) 4
loop_
_atom_type_symbol
_atom_type_number_in_cell
_atom_type_scat_dispersion_real
_atom_type_scat_dispersion_imag
_atom_type_scat_Cromer_Mann_a1
_atom_type_scat_Cromer_Mann_a2
_atom_type_scat_Cromer_Mann_a3
_atom_type_scat_Cromer_Mann_a4
_atom_type_scat_Cromer_Mann_b1
_atom_type_scat_Cromer_Mann_b2
_atom_type_scat_Cromer_Mann_b3
_atom_type_scat_Cromer_Mann_b4
_atom_type_scat_Cromer_Mann_c
_atom_type_scat_source
Cl 2.0 0.000 0.000 11.4604 0.01040 7.19640 1.16620 6.25560 18.5194 1.64550
47.7784 -9.5574 International_Tables_Vol_C
N 2.0 0.000 0.000 12.2126 0.00570 3.13220 9.89330 2.01250 28.9975 1.16630
0.58260 -11.529 International_Tables_Vol_C
C 4.0 0.000 0.000 2.31000 20.8439 1.02000 10.2075 1.58860 0.56870 0.86500
51.6512 0.21560 International_Tables_Vol_C
H 16.0 0.000 0.000 0.49300 10.5109 0.32291 26.1257 0.14019 3.14236 0.04081
57.7997 0.00304 International_Tables_Vol_C
loop_
_diffrn_radiation_wavelength
_diffrn_radiation_wavelength_wt
_diffrn_radiation_type
_diffrn_radiation_wavelength_id
1.540598 1.000 K\a~1~ 1
1.544390 0.380 K\a~2~ 2
loop_
_geom_angle_atom_site_label_1
_geom_angle_atom_site_label_2
_geom_angle_atom_site_label_3
_geom_angle
_geom_angle_site_symmetry_1
_geom_angle_site_symmetry_3
_geom_angle_publ_flag
H1 Cl H3 76.27(14) 2_555 1_565 n
H1 Cl H3 76.27(14) 2_555 -2_565 n
H3 Cl H3 151.21(24) 1_565 -2_565 n
C1 N H1 109.9(4) 1_555 1_555 n
C1 N H3 109.7(4) 1_555 1_555 n
C1 N H3 109.7(4) 1_555 -2_565 n
H1 N H3 109.2(5) 1_555 1_555 n
H1 N H3 109.2(5) 1_555 -2_565 n
H3 N H3 109.2(5) 1_555 -2_565 n
N C1 C2 108.84(23) 1_555 1_555 n
N C1 H4 110.0(4) 1_555 1_555 n
N C1 H4 110.0(4) 1_555 -2_565 n
C2 C1 H4 108.8(4) 1_555 1_555 n
C2 C1 H4 108.8(4) 1_555 -2_565 n
H4 C1 H4 110.3(5) 1_555 -2_565 n
C1 C2 H2 108.9(4) 1_555 1_555 n
C1 C2 H5 109.2(4) 1_555 1_555 n
C1 C2 H5 109.2(4) 1_555 -2_565 n
H2 C2 H5 109.8(5) 1_555 1_555 n
H2 C2 H5 109.8(5) 1_555 -2_565 n
H5 C2 H5 110.0(5) 1_555 -2_565 n
Cl H1 N 162.9(5) 2_545 1_555 n
Cl H3 N 157.5(4) 1_545 1_555 n
loop_
_geom_bond_atom_site_label_1
_geom_bond_atom_site_label_2
_geom_bond_distance
_geom_bond_site_symmetry_2
_geom_bond_publ_flag
Cl H1 2.266(6) 2_555 n
Cl H3 2.2716(30) 1_565 n
Cl H3 2.2716(30) -2_555 n
N C1 1.465(4) 1_555 n
N H1 0.980(5) 1_555 n
N H3 0.981(4) 1_555 n
N H3 0.981(4) -2_555 n
N H4 2.022(6) 1_555 n
N H4 2.022(6) -2_555 n
C1 N 1.465(4) 1_555 n
C1 C2 1.534(4) 1_555 n
C1 H1 2.022(5) 1_555 n
C1 H2 2.070(5) 1_555 n
C1 H3 2.019(6) 1_555 n
C1 H3 2.019(6) -2_555 n
C1 H4 0.980(4) 1_555 n
C1 H4 0.980(4) -2_555 n
C1 H5 2.074(6) 1_555 n
C1 H5 2.074(6) -2_555 n
C2 C1 1.534(4) 1_555 n
C2 H2 0.980(6) 1_555 n
C2 H4 2.069(6) 1_555 n
C2 H4 2.069(6) -2_555 n
C2 H5 0.981(4) 1_555 n
C2 H5 0.981(4) -2_555 n
H1 Cl 2.266(6) 2_545 n
H1 N 0.980(5) 1_555 n
H1 C1 2.022(5) 1_555 n
H1 H3 1.598(7) 1_555 n
H1 H3 1.598(7) -2_555 n
H2 C1 2.070(5) 1_555 n
H2 C2 0.980(6) 1_555 n
H2 H5 1.604(7) 1_555 n
H2 H5 1.604(7) -2_555 n
H3 Cl 2.2716(30) 1_545 n
H3 N 0.981(4) 1_555 n
H3 C1 2.019(6) 1_555 n
H3 H1 1.598(7) 1_555 n
H3 H3 1.598(6) -2_555 n
H4 N 2.022(6) 1_555 n
H4 C1 0.980(4) 1_555 n
H4 C2 2.069(6) 1_555 n
H4 H4 1.608(6) -2_555 n
H5 C1 2.074(6) 1_555 n
H5 C2 0.981(4) 1_555 n
H5 H2 1.604(7) 1_555 n
H5 H5 1.607(6) -2_555 n
loop_
_pd_meas_counts_total
_pd_proc_ls_weight
_pd_proc_intensity_bkg_calc
_pd_calc_intensity_total
1733.0 0.000577 1689.01270 1689.01379
1620.0 0.000617 1666.72144 1666.72241
1629.0 0.000614 1645.17371 1645.17493
1599.0 0.000625 1624.36182 1624.36304
1638.0 0.000611 1604.26917 1604.26990
1537.0 0.000651 1584.88269 1584.88318
1504.0 0.000665 1566.18762 1566.18811
1498.0 0.000668 1548.17126 1548.17212
1573.0 0.000636 1530.81934 1530.81970
1481.0 0.000675 1514.11694 1514.11755
1541.0 0.000649 1498.04651 1498.04688
1495.0 0.000669 1482.59644 1482.59692
1426.0 0.000701 1467.75012 1467.75012
1470.0 0.000680 1453.49219 1453.49255
1439.0 0.000695 1439.80737 1439.80762
1497.0 0.000668 1426.68018 1426.68066
1448.0 0.000691 1414.09631 1414.09656
1440.0 0.000694 1402.03784 1402.03809
1404.0 0.000712 1390.49219 1390.49231
1489.0 0.000672 1379.44312 1379.44324
1408.0 0.000710 1368.87439 1368.87451
1374.0 0.000728 1358.77185 1358.77197
1300.0 0.000769 1349.12048 1349.12073
1326.0 0.000754 1339.90527 1339.90540
1305.0 0.000766 1331.11169 1331.11194
1331.0 0.000751 1322.72412 1322.72449
1340.0 0.000746 1314.72986 1314.72937
1308.0 0.000765 1307.11267 1307.11243
1274.0 0.000785 1299.85974 1299.85999
1320.0 0.000758 1292.95728 1292.95740
1330.0 0.000752 1286.39148 1286.39148
1233.0 0.000811 1280.14832 1280.14844
1276.0 0.000784 1274.21533 1274.21509
1256.0 0.000796 1268.57959 1268.57922
1226.0 0.000816 1263.22766 1263.22791
1295.0 0.000772 1258.14807 1258.14746
1312.0 0.000762 1253.32776 1253.32764
1225.0 0.000816 1248.75464 1248.75500
1240.0 0.000806 1244.41833 1244.41858
1220.0 0.000820 1240.30701 1240.30688
1267.0 0.000789 1236.40771 1236.40808
1200.0 0.000833 1232.71191 1232.71204
1281.0 0.000781 1229.20764 1229.20764
1181.0 0.000847 1225.88513 1225.88513
1227.0 0.000815 1222.73438 1222.73438
1203.0 0.000831 1219.74426 1219.74426
1245.0 0.000803 1216.90759 1216.90735
1211.0 0.000826 1214.21265 1214.21265
1232.0 0.000812 1211.65234 1211.65247
1207.0 0.000829 1209.21741 1209.21729
1214.0 0.000824 1206.89868 1206.89905
1246.0 0.000803 1204.68896 1204.68884
1176.0 0.000850 1202.57947 1202.57947
1215.0 0.000823 1200.56311 1200.56323
1161.0 0.000861 1198.63257 1198.63257
1169.0 0.000855 1196.78015 1196.78027
1172.0 0.000853 1194.99951 1194.99963
1228.0 0.000814 1193.28418 1193.28418
1130.0 0.000885 1191.62732 1191.62720
1135.0 0.000881 1190.02271 1190.02234
1175.0 0.000851 1188.46460 1188.46460
1188.0 0.000842 1186.94775 1186.94727
1205.0 0.000830 1185.46582 1185.46594
1175.0 0.000851 1184.01453 1184.01489
1180.0 0.000847 1182.58875 1182.58838
1122.0 0.000891 1181.18311 1181.18274
1187.0 0.000842 1179.79395 1179.79370
1187.0 0.000842 1178.41602 1178.41638
1191.0 0.000840 1177.04651 1177.04675
1113.0 0.000898 1175.68054 1175.68066
1174.0 0.000852 1174.31433 1174.31470
1154.0 0.000867 1172.94519 1172.94495
1098.0 0.000911 1171.56873 1171.56873
1201.0 0.000833 1170.18274 1170.18250
1124.0 0.000890 1168.78394 1168.78369
1170.0 0.000855 1167.36865 1167.36914
1190.0 0.000840 1165.93665 1165.93652
1112.0 0.000899 1164.48303 1164.48352
1118.0 0.000894 1163.00745 1163.00708
1184.0 0.000845 1161.50610 1161.50623
1158.0 0.000864 1159.97791 1159.97803
1136.0 0.000880 1158.42126 1158.42126
1192.0 0.000839 1156.83435 1156.83423
1172.0 0.000853 1155.21509 1155.21521
1123.0 0.000890 1153.56299 1153.56299
1197.0 0.000835 1151.87634 1151.87622
1087.0 0.000920 1150.15430 1150.15430
1178.0 0.000849 1148.39478 1148.39465
1148.0 0.000871 1146.59912 1146.59875
1115.0 0.000897 1144.76440 1144.76440
1151.0 0.000869 1142.89111 1142.89111
1118.0 0.000894 1140.97778 1140.97815
1174.0 0.000852 1139.02527 1139.02551
1161.0 0.000861 1137.03235 1137.03235
1138.0 0.000879 1134.99927 1137.31909
1149.0 0.000870 1132.92542 1135.39929
1115.0 0.000897 1130.81091 1134.38074
1091.0 0.000917 1128.65564 1132.47717
1117.0 0.000895 1126.45972 1130.56079
1133.0 0.000883 1124.22363 1128.63647
1080.0 0.000926 1121.94763 1126.70972
1073.0 0.000932 1119.63171 1124.78674
1137.0 0.000880 1117.27588 1122.87537
1140.0 0.000877 1114.88147 1120.98560
1125.0 0.000889 1112.44885 1119.13025
1134.0 0.000882 1109.97803 1117.32422
1121.0 0.000892 1107.46948 1115.58691
1152.0 0.000868 1104.92468 1113.94397
1169.0 0.000855 1102.34375 1112.42847
1155.0 0.000866 1099.72803 1111.08496
1193.0 0.000838 1097.07776 1109.97656
1186.0 0.000843 1094.39331 1109.21082
1256.0 0.000796 1091.67603 1109.05530
1211.0 0.000826 1088.92737 1110.32996
1251.0 0.000799 1086.14795 1115.42761
1278.0 0.000782 1083.33862 1130.00830
1246.0 0.000803 1080.50024 1164.28418
1313.0 0.000762 1077.63367 1231.86597
1413.0 0.000708 1074.74011 1345.65820
1506.0 0.000664 1071.82056 1514.45996
1802.0 0.000555 1068.87659 1745.23547
1948.0 0.000513 1065.90845 2051.55371
2410.0 0.000415 1062.91797 2466.26685
3124.0 0.0003201 1059.90503 3052.55273
3823.0 0.0002616 1056.87219 3886.82544
4722.0 0.0002118 1053.82007 4962.90088
5561.0 0.0001798 1050.74976 6032.72656
6231.0 0.0001605 1047.66174 6582.27490
6727.0 0.0001487 1044.55786 6161.14307
5796.0 0.0001725 1041.43933 4876.54688
4003.0 0.0002498 1038.30676 3354.12939
2298.0 0.000435 1035.16199 2171.84375
1468.0 0.000681 1032.00513 1502.32434
1194.0 0.000838 1028.83789 1211.22717
1084.0 0.000923 1025.66174 1107.46887
1083.0 0.000923 1022.47693 1071.82800
1039.0 0.000962 1019.28540 1055.96362
1029.0 0.000972 1016.08765 1045.63721
1011.0 0.000989 1012.88452 1037.41504
1030.0 0.000971 1009.67773 1030.39417
956.0 0.001046 1006.46808 1024.19922
927.0 0.001079 1003.25659 1018.60510
968.0 0.001033 1000.04443 1013.46088
1040.0 0.000962 996.83209 1008.66064
964.0 0.001037 993.62091 1004.12842
960.0 0.001042 990.41211 999.80878
955.0 0.001047 987.20642 995.65973
969.0 0.001032 984.00470 991.65045
926.0 0.001080 980.80780 987.75641
914.0 0.001094 977.61670 983.95966
944.0 0.001059 974.43268 980.24609
986.0 0.001014 971.25592 972.83521
929.0 0.001076 968.08789 968.08795
1019.0 0.000981 964.92883 964.92883
918.0 0.001089 961.78015 961.78046
912.0 0.001096 958.64197 958.64252
946.0 0.001057 955.51575 955.51624
938.0 0.001066 952.40179 952.40204
891.0 0.001122 949.30072 949.30109
980.0 0.001020 946.21405 946.21399
943.0 0.001060 943.14117 943.14117
969.0 0.001032 940.08356 940.08380
942.0 0.001062 937.04193 937.04193
899.0 0.001112 934.01611 934.01636
901.0 0.001110 931.00732 931.00806
931.0 0.001074 928.01678 928.01703
882.0 0.001134 925.04401 925.04407
884.0 0.001131 922.08936 922.08972
882.0 0.001134 919.15387 919.15411
898.0 0.001114 916.23840 916.23865
934.0 0.001071 913.34265 913.34302
861.0 0.001161 910.46747 910.46783
901.0 0.001110 907.61304 907.61322
848.0 0.001179 904.77997 904.78003
893.0 0.001120 901.96832 901.96881
879.0 0.001138 899.17877 899.17926
880.0 0.001136 896.41174 896.41211
867.0 0.001153 893.66718 893.66754
863.0 0.001159 890.94556 890.94580
882.0 0.001134 888.24719 888.24738
894.0 0.001119 885.57220 885.57269
939.0 0.001065 882.92108 882.92157
878.0 0.001139 880.29346 880.29395
867.0 0.001153 877.69037 877.69055
849.0 0.001178 875.11145 875.11182
901.0 0.001110 872.55695 872.55719
875.0 0.001143 870.02710 870.02734
889.0 0.001125 867.52173 867.52191
859.0 0.001164 865.04102 865.04150
882.0 0.001134 862.58557 862.58557
831.0 0.001203 860.15503 860.15527
851.0 0.001175 857.74939 857.74988
888.0 0.001126 855.36865 855.36902
879.0 0.001138 853.01300 853.01343
875.0 0.001143 850.68280 850.68329
857.0 0.001167 848.37769 848.37793
839.0 0.001192 846.09735 846.09778
836.0 0.001196 843.84229 843.84241
841.0 0.001189 841.61200 841.61224
893.0 0.001120 839.40649 839.40686
857.0 0.001167 837.22620 837.22656
798.0 0.001253 835.07056 835.07104
862.0 0.001160 832.93982 832.93988
820.0 0.001220 830.83319 830.83356
829.0 0.001206 828.75134 828.75177
847.0 0.001181 826.69379 826.69403
807.0 0.001239 824.66034 824.66046
769.0 0.001300 822.65088 822.65112
848.0 0.001179 820.66498 820.66541
820.0 0.001220 818.70331 818.70374
801.0 0.001248 816.76483 816.76538
809.0 0.001236 814.85004 814.85046
818.0 0.001222 812.95813 812.95831
833.0 0.001200 811.08893 811.08929
836.0 0.001196 809.24280 809.24310
813.0 0.001230 807.41901 807.41943
825.0 0.001212 805.61761 805.61792
819.0 0.001221 803.83801 803.83832
776.0 0.001289 802.08032 802.08057
797.0 0.001255 800.34406 800.34436
794.0 0.001259 798.62933 798.62958
790.0 0.001266 796.93542 796.93591
791.0 0.001264 795.26227 795.26263
814.0 0.001229 793.60968 793.61005
817.0 0.001224 791.97729 791.97766
802.0 0.001247 790.36493 790.36548
829.0 0.001206 788.77264 788.77283
803.0 0.001245 787.19922 787.19946
757.0 0.001321 785.64508 785.64532
834.0 0.001199 784.10980 784.10992
785.0 0.001274 782.59296 782.59344
754.0 0.001326 781.09454 781.09491
834.0 0.001199 779.61414 779.61438
786.0 0.001272 778.15118 778.15161
784.0 0.001276 776.70575 776.70599
803.0 0.001245 775.27734 775.27747
777.0 0.001287 773.86578 773.86603
852.0 0.001174 772.47058 772.47089
735.0 0.001361 771.09174 771.09192
838.0 0.001193 769.72852 769.72894
759.0 0.001318 768.38129 768.38159
764.0 0.001309 767.04913 767.04932
792.0 0.001263 765.73193 765.73224
741.0 0.001350 764.42920 764.42957
768.0 0.001302 763.14111 763.14142
759.0 0.001318 761.86725 761.86743
735.0 0.001361 760.60712 760.60736
729.0 0.001372 759.36029 759.36053
775.0 0.001290 758.12683 758.12738
796.0 0.001256 756.90643 756.90662
771.0 0.001297 755.69849 755.69873
724.0 0.001381 754.50305 754.50342
781.0 0.001280 753.31964 753.31982
748.0 0.001337 752.14795 752.14838
777.0 0.001287 750.98785 750.98810
755.0 0.001325 749.83911 749.83942
725.0 0.001379 748.70129 748.70160
734.0 0.001362 747.57385 747.57416
821.0 0.001218 746.45740 746.45752
751.0 0.001332 745.35083 745.35089
726.0 0.001377 744.25427 744.25446
720.0 0.001389 743.16730 743.16760
759.0 0.001318 742.08978 742.08990
738.0 0.001355 741.02155 741.02173
760.0 0.001316 739.96210 739.96228
750.0 0.001333 738.91150 738.91174
713.0 0.001403 737.86914 737.86938
714.0 0.001401 736.83502 736.83539
749.0 0.001335 735.80920 735.80933
741.0 0.001350 734.79095 734.79114
771.0 0.001297 733.77997 733.78040
751.0 0.001332 732.77698 732.77692
737.0 0.001357 731.78033 731.78058
704.0 0.001420 730.79095 730.79126
718.0 0.001393 729.80847 729.80865
679.0 0.001473 728.83258 728.83252
712.0 0.001404 727.86267 727.86292
746.0 0.001340 726.89886 726.89905
766.0 0.001305 725.94122 725.94147
768.0 0.001302 724.98920 724.98938
703.0 0.001422 724.04291 724.04321
754.0 0.001326 723.10181 723.10199
740.0 0.001351 722.16620 722.16644
698.0 0.001433 721.23572 721.23602
716.0 0.001397 720.31012 720.31024
695.0 0.001439 719.38922 719.38953
718.0 0.001393 718.47308 718.47327
770.0 0.001299 717.56134 717.56146
749.0 0.001335 716.65399 716.65411
745.0 0.001342 715.75079 715.75098
757.0 0.001321 714.85187 714.85193
733.0 0.001364 713.95667 713.95685
692.0 0.001445 713.06549 713.06567
696.0 0.001437 712.17792 712.17810
707.0 0.001414 711.29401 711.29431
674.0 0.001484 710.41382 710.41388
693.0 0.001443 709.53687 709.53693
738.0 0.001355 708.66327 708.66333
730.0 0.001370 707.79272 707.79291
671.0 0.001490 706.92554 706.92572
707.0 0.001414 706.06128 706.06146
708.0 0.001412 705.20001 705.20007
692.0 0.001445 704.34167 704.34204
703.0 0.001422 703.48596 703.48602
672.0 0.001488 702.63318 702.63342
724.0 0.001381 701.78308 701.78314
692.0 0.001445 700.93567 700.93585
701.0 0.001427 700.09076 700.09088
668.0 0.001497 699.24792 699.24811
694.0 0.001441 698.40814 698.40808
647.0 0.001546 697.57068 697.57086
728.0 0.001374 696.73547 696.73535
680.0 0.001471 695.90265 695.90253
653.0 0.001531 695.07184 695.07208
673.0 0.001486 694.24347 694.24365
767.0 0.001304 693.41748 693.41766
649.0 0.001541 692.59387 692.59381
665.0 0.001504 691.77185 691.77203
646.0 0.001548 690.95245 690.95264
677.0 0.001477 690.13525 690.13538
698.0 0.001433 689.31995 689.32007
734.0 0.001362 688.50702 688.50708
690.0 0.001449 687.69598 687.69641
672.0 0.001488 686.88721 686.88745
658.0 0.001520 686.08063 686.08081
667.0 0.001499 685.27618 685.27637
673.0 0.001486 684.47369 684.47394
651.0 0.001536 683.67358 683.67371
643.0 0.001555 682.87561 682.87555
704.0 0.001420 682.07959 682.07977
663.0 0.001508 681.28595 681.28632
728.0 0.001374 680.49463 680.49469
654.0 0.001529 679.70544 679.70551
673.0 0.001486 678.91840 678.91833
682.0 0.001466 678.13354 678.13391
702.0 0.001425 677.35132 677.35144
664.0 0.001506 676.57135 676.57129
680.0 0.001471 675.79346 675.79364
694.0 0.001441 675.01807 675.01813
689.0 0.001451 674.24536 674.24548
675.0 0.001481 673.47491 673.47504
660.0 0.001515 672.70703 672.70721
686.0 0.001458 671.94159 671.94183
672.0 0.001488 671.17902 671.17908
661.0 0.001513 670.41870 670.41888
673.0 0.001486 669.66138 669.66168
677.0 0.001477 668.90662 668.90680
663.0 0.001508 668.15472 668.15485
666.0 0.001502 667.40533 667.40570
615.0 0.001626 666.65930 666.65967
678.0 0.001475 665.91602 665.91614
639.0 0.001565 665.17554 665.17572
658.0 0.001520 664.43805 664.43835
674.0 0.001484 663.70398 663.70404
631.0 0.001585 662.97266 662.97284
699.0 0.001431 662.24475 662.24481
694.0 0.001441 661.52014 661.52032
665.0 0.001504 660.79871 660.79865
665.0 0.001504 660.08032 660.08057
688.0 0.001453 659.36578 659.36578
620.0 0.001613 658.65460 658.65479
678.0 0.001475 657.94696 657.94696
645.0 0.001550 657.24261 657.24274
671.0 0.001490 656.54224 656.54218
659.0 0.001517 655.84546 655.84540
648.0 0.001543 655.15240 655.15234
636.0 0.001572 654.46326 654.46338
613.0 0.001631 653.77802 653.77802
642.0 0.001558 653.09650 653.09668
645.0 0.001550 652.41937 652.41937
626.0 0.001597 651.74597 651.74622
641.0 0.001560 651.07697 651.07703
653.0 0.001531 650.41180 650.41205
626.0 0.001597 649.75128 649.75134
626.0 0.001597 649.09479 649.09497
643.0 0.001555 648.44275 648.44287
654.0 0.001529 647.79529 647.79565
648.0 0.001543 647.15204 647.15234
668.0 0.001497 646.51331 646.51361
674.0 0.001484 645.87939 645.87958
613.0 0.001631 645.25024 645.25031
644.0 0.001553 644.62561 644.62585
661.0 0.001513 644.00604 644.00610
631.0 0.001585 643.39117 643.39111
645.0 0.001550 642.78101 642.78119
640.0 0.001563 642.17584 642.17621
616.0 0.001623 641.57599 641.57605
646.0 0.001548 640.98102 640.98126
645.0 0.001550 640.39105 640.39117
651.0 0.001536 639.80621 639.80621
624.0 0.001603 639.22693 639.22705
665.0 0.001504 638.65271 638.65308
653.0 0.001531 638.08386 638.08417
701.0 0.001427 637.52045 637.52063
659.0 0.001517 636.96265 636.96265
642.0 0.001558 636.40991 636.41016
660.0 0.001515 635.86322 635.86322
632.0 0.001582 635.32153 635.32172
670.0 0.001493 634.78589 634.78613
691.0 0.001447 634.25598 634.25616
602.0 0.001661 633.73175 633.73175
642.0 0.001558 633.21313 633.21332
588.0 0.001701 632.70032 632.70038
623.0 0.001605 632.19348 632.19373
613.0 0.001631 631.69257 631.69275
623.0 0.001605 631.19751 631.19769
625.0 0.001600 630.70856 630.70874
656.0 0.001524 630.22552 630.22571
635.0 0.001575 629.74860 629.74872
622.0 0.001608 629.27771 629.27783
662.0 0.001511 628.81317 628.81323
615.0 0.001626 628.35468 628.35498
655.0 0.001527 627.90240 627.90253
652.0 0.001534 627.45654 627.45660
606.0 0.001650 627.01672 627.01691
621.0 0.001610 626.58307 626.58344
674.0 0.001484 626.15619 626.15625
623.0 0.001605 625.73572 625.73572
625.0 0.001600 625.32111 625.32141
669.0 0.001495 624.91345 624.91345
616.0 0.001623 624.51196 624.51239
677.0 0.001477 624.11719 624.11725
608.0 0.001645 623.72864 623.72906
644.0 0.001553 623.34680 623.34705
615.0 0.001626 622.97168 622.97198
628.0 0.001592 622.60297 622.60315
643.0 0.001555 622.24084 622.24109
627.0 0.001595 621.88544 621.88550
616.0 0.001623 621.53674 621.53693
604.0 0.001656 621.19458 621.19464
649.0 0.001541 620.85889 620.85931
659.0 0.001517 620.53021 620.53040
674.0 0.001484 620.20819 620.20844
640.0 0.001563 619.89288 619.89319
620.0 0.001613 619.58417 619.58466
617.0 0.001621 619.28259 619.28278
675.0 0.001481 618.98761 618.98773
629.0 0.001590 618.69940 618.79919
629.0 0.001590 618.41766 618.52399
623.0 0.001605 618.14307 618.29419
609.0 0.001642 617.87531 618.03693
659.0 0.001517 617.61407 617.78729
603.0 0.001658 617.35980 617.54572
635.0 0.001575 617.11237 617.31262
660.0 0.001515 616.87170 617.08813
604.0 0.001656 616.63782 616.87244
603.0 0.001658 616.41095 616.66565
629.0 0.001590 616.19086 616.46887
645.0 0.001550 615.97760 616.28198
638.0 0.001567 615.77106 616.10577
626.0 0.001597 615.57153 615.94165
595.0 0.001681 615.37866 615.79016
607.0 0.001647 615.19275 615.65265
653.0 0.001531 615.01361 615.53131
642.0 0.001558 614.84125 615.42804
616.0 0.001623 614.67560 615.34686
588.0 0.001701 614.51709 615.29242
643.0 0.001555 614.36530 615.27240
581.0 0.001721 614.22021 615.30219
658.0 0.001520 614.08160 615.42267
570.0 0.001754 613.95026 615.74561
584.0 0.001712 613.82526 616.55090
645.0 0.001550 613.70734 618.43640
639.0 0.001565 613.59601 622.48871
605.0 0.001653 613.49158 630.40015
634.0 0.001577 613.39386 644.37488
597.0 0.001675 613.30255 666.38116
669.0 0.001495 613.21820 696.12781
675.0 0.001481 613.14056 728.27557
715.0 0.001399 613.06946 751.91296
707.0 0.001414 613.00500 755.58185
680.0 0.001471 612.94690 736.85638
707.0 0.001414 612.89594 704.77332
603.0 0.001658 612.85120 671.30103
647.0 0.001546 612.81348 645.09216
649.0 0.001541 612.78168 628.70581
615.0 0.001626 612.75690 620.23456
628.0 0.001592 612.73834 616.49860
536.0 0.001866 612.72650 614.99445
620.0 0.001613 612.72107 614.35608
595.0 0.001681 612.72186 614.02155
621.0 0.001610 612.72949 613.80585
559.0 0.001789 612.74353 613.65277
640.0 0.001563 612.76355 613.54279
641.0 0.001560 612.79022 613.46533
590.0 0.001695 612.82306 613.41345
627.0 0.001595 612.86230 613.38318
587.0 0.001704 612.90796 613.37061
605.0 0.001653 612.95978 613.37347
628.0 0.001592 613.01776 613.38983
609.0 0.001642 613.08191 613.41864
610.0 0.001639 613.15234 613.45850
620.0 0.001613 613.22876 613.50836
559.0 0.001789 613.31140 613.60742
631.0 0.001585 613.40027 613.67816
609.0 0.001642 613.49506 613.77264
584.0 0.001712 613.59589 613.86121
644.0 0.001553 613.70288 613.95844
594.0 0.001684 613.81586 614.06348
633.0 0.001580 613.93451 614.17664
597.0 0.001675 614.05914 614.29706
602.0 0.001661 614.18976 614.42554
650.0 0.001538 614.32617 614.46777
631.0 0.001585 614.46844 614.61682
564.0 0.001773 614.61664 614.73761
621.0 0.001610 614.77032 614.90356
601.0 0.001664 614.92981 615.07721
625.0 0.001600 615.09491 615.25854
659.0 0.001517 615.26599 615.44879
581.0 0.001721 615.44232 615.64807
642.0 0.001558 615.62439 615.85773
638.0 0.001567 615.81195 616.07904
577.0 0.001733 616.00500 616.31311
645.0 0.001550 616.20361 616.56372
602.0 0.001661 616.40784 616.83630
593.0 0.001686 616.61719 617.14484
612.0 0.001634 616.83203 617.52820
621.0 0.001610 617.05225 618.08594
614.0 0.001629 617.27753 619.04150
642.0 0.001558 617.50842 620.81897
651.0 0.001536 617.74414 624.10461
680.0 0.001471 617.98523 629.78540
649.0 0.001541 618.23151 638.56934
666.0 0.001502 618.48297 650.14093
616.0 0.001623 618.73926 662.21558
653.0 0.001531 619.00092 670.63696
708.0 0.001412 619.26733 671.49579
694.0 0.001441 619.53857 664.51678
688.0 0.001453 619.81512 653.17413
653.0 0.001531 620.09644 641.52478
630.0 0.001587 620.38226 632.43317
633.0 0.001580 620.67303 626.76483
612.0 0.001634 620.96863 623.90051
639.0 0.001565 621.26898 622.76538
617.0 0.001621 621.57410 622.47699
629.0 0.001590 621.88354 622.53137
646.0 0.001548 622.19775 622.71130
602.0 0.001661 622.51648 622.94177
652.0 0.001534 622.83984 623.19916
625.0 0.001600 623.16742 623.47546
666.0 0.001502 623.49963 623.76642
626.0 0.001597 623.83618 624.06964
607.0 0.001647 624.17694 624.38293
572.0 0.001748 624.52216 624.70538
620.0 0.001613 624.87140 625.03522
594.0 0.001684 625.22504 625.37238
634.0 0.001577 625.58282 625.71625
627.0 0.001595 625.94464 626.06580
611.0 0.001637 626.31073 626.42145
599.0 0.001669 626.68054 626.78223
615.0 0.001626 627.05463 627.14813
605.0 0.001653 627.43262 627.51886
623.0 0.001605 627.81433 627.89410
583.0 0.001715 628.20013 628.27435
615.0 0.001626 628.58960 628.65851
643.0 0.001555 628.98285 629.04742
630.0 0.001587 629.37982 629.44012
611.0 0.001637 629.78046 629.79773
649.0 0.001541 630.18457 630.20081
636.0 0.001572 630.59247 630.60767
650.0 0.001538 631.00378 631.00403
555.0 0.001802 631.41852 631.41888
563.0 0.001776 631.83685 631.83710
595.0 0.001681 632.25848 632.25867
614.0 0.001629 632.68353 632.68372
601.0 0.001664 633.11176 633.11194
588.0 0.001701 633.54352 633.54376
651.0 0.001536 633.97809 633.97827
619.0 0.001616 634.41608 634.41632
650.0 0.001538 634.85712 634.85718
660.0 0.001515 635.30121 635.30127
613.0 0.001631 635.74811 635.74829
585.0 0.001709 636.19794 636.19794
669.0 0.001495 636.65088 636.65112
634.0 0.001577 637.10669 637.10681
604.0 0.001656 637.56525 637.56543
674.0 0.001484 638.02649 638.02679
695.0 0.001439 638.49048 638.49066
660.0 0.001515 638.95715 638.95715
714.0 0.001401 639.42627 639.42657
691.0 0.001447 639.89813 640.34149
683.0 0.001464 640.37250 640.83801
648.0 0.001543 640.84912 641.92340
708.0 0.001412 641.32819 642.45807
667.0 0.001499 641.80969 643.15521
679.0 0.001473 642.29340 643.71136
683.0 0.001464 642.77930 644.27612
683.0 0.001464 643.26758 644.84943
684.0 0.001462 643.75757 645.43250
688.0 0.001453 644.25024 646.02606
688.0 0.001453 644.74438 646.63104
696.0 0.001437 645.24097 647.24872
688.0 0.001453 645.73895 647.88037
713.0 0.001403 646.23914 648.52759
730.0 0.001370 646.74115 649.19257
705.0 0.001418 647.24463 649.87738
683.0 0.001464 647.75024 650.58453
728.0 0.001374 648.25690 651.31744
665.0 0.001504 648.76563 652.08063
685.0 0.001460 649.27582 652.87817
599.0 0.001669 649.78723 653.71643
641.0 0.001560 650.30029 654.60309
683.0 0.001464 650.81458 655.54639
654.0 0.001529 651.33026 656.55957
656.0 0.001524 651.84717 657.65680
642.0 0.001558 652.36548 658.85760
646.0 0.001548 652.88452 660.18811
607.0 0.001647 653.40479 661.68243
644.0 0.001553 653.92603 663.38843
685.0 0.001460 654.44843 665.37408
646.0 0.001548 654.97137 667.75055
665.0 0.001504 655.49554 670.74640
716.0 0.001397 656.01990 674.92676
706.0 0.001416 656.54565 681.78143
703.0 0.001422 657.07190 694.94916
712.0 0.001404 657.59869 722.26416
785.0 0.001274 658.12592 778.17639
902.0 0.001109 658.65375 884.29437
1066.0 0.000938 659.18207 1063.95752
1267.0 0.000789 659.71057 1326.94580
1616.0 0.000619 660.23938 1648.89648
1969.0 0.000508 660.76874 1960.74561
2160.0 0.000463 661.29791 2167.32397
2166.0 0.000462 661.82751 2201.36914
2257.0 0.000443 662.35699 2054.10425
1908.0 0.000524 662.88641 1774.98071
1583.0 0.000632 663.41608 1454.97900
1247.0 0.000802 663.94519 1169.13550
991.0 0.001009 664.47455 955.90717
786.0 0.001272 665.00336 820.69745
676.0 0.001479 665.53223 746.50684
692.0 0.001445 666.06036 710.61072
653.0 0.001531 666.58813 694.69122
681.0 0.001468 667.11554 687.59204
658.0 0.001520 667.64221 683.98480
715.0 0.001399 668.16840 681.78918
686.0 0.001458 668.69391 680.28802
629.0 0.001590 669.21875 679.22028
698.0 0.001433 669.74261 678.46118
629.0 0.001590 670.26563 677.93408
630.0 0.001587 670.78778 677.58539
669.0 0.001495 671.30902 677.37646
693.0 0.001443 671.82910 680.71716
662.0 0.001511 672.34808 680.88141
694.0 0.001441 672.86591 682.39636
687.0 0.001456 673.38239 682.78339
717.0 0.001395 673.89777 683.24054
683.0 0.001464 674.41150 683.76166
706.0 0.001416 674.92407 684.34320
685.0 0.001460 675.43500 684.98297
690.0 0.001449 675.94434 685.67957
707.0 0.001414 676.45233 686.43396
723.0 0.001383 676.95837 687.24738
717.0 0.001395 677.46265 688.12335
709.0 0.001410 677.96515 689.06555
675.0 0.001481 678.46576 690.08002
706.0 0.001416 678.96442 691.17419
724.0 0.001381 679.46118 692.35742
738.0 0.001355 679.95575 693.64160
688.0 0.001453 680.44830 695.04108
711.0 0.001406 680.93842 696.57318
685.0 0.001460 681.42627 698.26105
697.0 0.001435 681.91217 700.13171
755.0 0.001325 682.39551 701.79791
745.0 0.001342 682.87634 704.16870
724.0 0.001381 683.35461 706.28851
725.0 0.001379 683.83044 709.39313
741.0 0.001350 684.30353 712.82452
767.0 0.001304 684.77405 717.03168
715.0 0.001399 685.24152 722.02112
750.0 0.001333 685.70630 728.02960
724.0 0.001381 686.16815 735.40967
763.0 0.001311 686.62714 744.74988
769.0 0.001300 687.08319 757.32416
737.0 0.001357 687.53613 776.46014
829.0 0.001206 687.98584 811.19269
926.0 0.001080 688.43219 884.01849
1106.0 0.000904 688.87537 1043.02319
1453.0 0.000688 689.31555 1373.43933
2048.0 0.000488 689.75208 1990.32251
2987.0 0.0003348 690.18530 2983.92310
4120.0 0.0002427 690.61487 4312.39355
5449.0 0.0001835 691.04065 5703.33008
6399.0 0.0001563 691.46326 6687.53271
6893.0 0.0001451 691.88184 6838.09863
6376.0 0.0001568 692.29669 6132.93066
5187.0 0.0001928 692.70801 4933.19189
3664.0 0.0002729 693.11517 3624.92017
2451.0 0.000408 693.51862 2497.63257
1655.0 0.000604 693.91785 1696.40405
1041.0 0.000961 694.31335 1213.70691
860.0 0.001163 694.70453 963.31573
789.0 0.001267 695.09155 848.49994
723.0 0.001383 695.47443 798.24060
748.0 0.001337 695.85291 774.14117
670.0 0.001493 696.22711 760.01135
747.0 0.001339 696.59717 750.17035
617.0 0.001621 696.96246 742.71545
636.0 0.001572 697.32330 736.86707
663.0 0.001508 697.67969 732.19861
668.0 0.001497 698.03119 728.42645
670.0 0.001493 698.37854 725.34613
649.0 0.001541 698.72070 722.80994
620.0 0.001613 699.05835 720.70593
692.0 0.001445 699.39099 718.95032
708.0 0.001412 699.71899 717.47845
664.0 0.001506 700.04163 716.23871
700.0 0.001429 700.35974 715.19208
664.0 0.001506 700.67279 714.30542
614.0 0.001629 700.98035 713.55353
627.0 0.001595 701.28308 712.91565
650.0 0.001538 701.58051 712.37427
684.0 0.001462 701.87280 711.93262
725.0 0.001379 702.15979 711.54486
731.0 0.001368 702.44128 711.21783
799.0 0.001252 702.71753 710.95020
781.0 0.001280 702.98822 710.72070
827.0 0.001209 703.25354 710.53088
750.0 0.001333 703.51318 710.37476
778.0 0.001285 703.76758 710.24866
760.0 0.001316 704.01611 710.14807
728.0 0.001374 704.25885 710.07001
792.0 0.001263 704.49628 710.01160
806.0 0.001241 704.72784 709.96997
767.0 0.001304 704.95349 709.94299
845.0 0.001183 705.17316 706.63904
840.0 0.001190 705.38708 706.78735
771.0 0.001297 705.59503 705.65088
778.0 0.001285 705.79718 705.85699
815.0 0.001227 705.99323 706.05780
787.0 0.001271 706.18329 706.25311
797.0 0.001255 706.36700 706.44312
753.0 0.001328 706.54498 706.62756
712.0 0.001404 706.71643 706.80707
673.0 0.001486 706.88190 706.98132
688.0 0.001453 707.04120 707.15100
665.0 0.001504 707.19397 707.31573
668.0 0.001497 707.34088 707.47681
650.0 0.001538 707.48083 707.63342
644.0 0.001553 707.61475 707.78772
637.0 0.001570 707.74231 707.93945
614.0 0.001629 707.86353 708.09064
620.0 0.001613 707.97821 708.24243
655.0 0.001527 708.08624 708.39832
626.0 0.001597 708.18756 708.56567
638.0 0.001567 708.28271 708.76239
623.0 0.001605 708.37115 709.03851
632.0 0.001582 708.45300 709.51892
643.0 0.001555 708.52814 710.46600
626.0 0.001597 708.59644 712.33411
667.0 0.001499 708.65833 715.69446
668.0 0.001497 708.71338 720.91046
689.0 0.001451 708.76160 727.57690
747.0 0.001339 708.80334 734.16101
712.0 0.001404 708.83807 738.34943
743.0 0.001346 708.86584 738.39368
685.0 0.001460 708.88702 734.65900
724.0 0.001381 708.90137 728.95294
696.0 0.001437 708.90881 722.89185
647.0 0.001546 708.90906 717.66296
676.0 0.001479 708.90247 713.88214
629.0 0.001590 708.88910 711.53546
690.0 0.001449 708.86884 710.26685
682.0 0.001466 708.84161 709.64746
671.0 0.001490 708.80743 709.34625
713.0 0.001403 708.76617 709.17535
681.0 0.001468 708.71783 709.05078
633.0 0.001580 708.66248 708.94257
697.0 0.001435 708.60010 708.83929
680.0 0.001471 708.53064 708.73761
658.0 0.001520 708.45416 708.63507
730.0 0.001370 708.37091 708.53027
645.0 0.001550 708.28027 708.42157
692.0 0.001445 708.18250 708.30920
702.0 0.001425 708.07788 708.19189
696.0 0.001437 707.96606 708.06897
709.0 0.001410 707.84698 707.94055
695.0 0.001439 707.72107 707.80646
704.0 0.001420 707.58789 707.66620
706.0 0.001416 707.44775 707.51953
729.0 0.001372 707.30017 707.36670
727.0 0.001376 707.14581 707.20734
692.0 0.001445 706.98413 707.04120
748.0 0.001337 706.81549 706.86847
654.0 0.001529 706.63959 706.68915
770.0 0.001299 706.45679 706.50317
699.0 0.001431 706.26672 706.31006
750.0 0.001333 706.06964 706.11041
724.0 0.001381 705.86530 705.90375
729.0 0.001372 705.65375 705.69006
728.0 0.001374 705.43536 705.46967
759.0 0.001318 705.20990 707.68243
758.0 0.001319 704.97729 707.56940
729.0 0.001372 704.73749 715.96844
759.0 0.001318 704.49078 717.21240
763.0 0.001311 704.23688 717.59662
795.0 0.001258 703.97614 721.26959
807.0 0.001239 703.70844 721.93079
830.0 0.001205 703.43329 722.65546
806.0 0.001241 703.15149 723.46606
784.0 0.001276 702.86243 724.36560
804.0 0.001244 702.56653 725.36572
833.0 0.001200 702.26373 726.47949
793.0 0.001261 701.95398 727.72272
798.0 0.001253 701.63708 729.11389
824.0 0.001214 701.31360 730.67303
839.0 0.001192 700.98303 732.42664
829.0 0.001206 700.64563 734.40265
833.0 0.001200 700.30139 736.63763
853.0 0.001172 699.95020 739.17322
819.0 0.001221 699.59222 742.06000
850.0 0.001176 699.22754 745.36072
825.0 0.001212 698.85596 749.15027
834.0 0.001199 698.47784 753.52411
833.0 0.001200 698.09277 758.59839
887.0 0.001127 697.70117 764.51947
837.0 0.001195 697.30280 771.47864
832.0 0.001202 696.89783 779.71606
865.0 0.001156 696.48621 789.55322
878.0 0.001139 696.06799 801.41315
907.0 0.001103 695.64313 815.86938
905.0 0.001105 695.21179 833.74561
957.0 0.001045 694.77393 856.30994
981.0 0.001019 694.32953 885.95892
1059.0 0.000944 693.87885 928.20380
1114.0 0.000898 693.42169 997.23663
1358.0 0.000736 692.95819 1128.86853
1637.0 0.000611 692.48822 1403.68347
2378.0 0.000421 692.01208 1975.99829
3290.0 0.0003040 691.52936 3081.66992
5021.0 0.0001992 691.04065 4976.18213
7600.0 0.0001316 690.54572 7767.12305
11155.0 0.0000896 690.04443 11178.27637
14154.0 0.0000707 689.53705 14439.15918
16146.0 0.0000619 689.02362 16515.83398
16799.0 0.0000595 688.50427 16655.41992
15088.0 0.0000663 687.97864 14911.29395
12269.0 0.0000815 687.44690 12087.35938
8852.0 0.0001130 686.90942 8999.08789
5901.0 0.0001695 686.36578 6195.73633
3979.0 0.0002513 685.81671 4020.32056
2361.0 0.000424 685.26154 2559.93945
1414.0 0.000707 684.70056 1703.66626
1170.0 0.000855 684.13385 1261.78894
930.0 0.001075 683.56140 1050.70679
891.0 0.001122 682.98334 949.79883
896.0 0.001116 682.39960 895.68365
836.0 0.001196 681.81024 859.98083
759.0 0.001318 681.21527 833.53973
779.0 0.001284 680.61505 812.73187
809.0 0.001236 680.00922 795.89661
729.0 0.001372 679.39801 782.04022
736.0 0.001359 678.78131 770.49280
715.0 0.001399 678.15955 760.75879
817.0 0.001224 677.53229 752.47736
785.0 0.001274 676.89984 745.37567
751.0 0.001332 676.26215 739.24054
778.0 0.001285 675.61963 733.91370
698.0 0.001433 674.97174 729.26685
757.0 0.001321 674.31903 725.20380
748.0 0.001337 673.66138 721.64923
755.0 0.001325 672.99829 718.54218
706.0 0.001416 672.33075 715.84088
795.0 0.001258 671.65826 713.51123
749.0 0.001335 670.98108 711.53387
697.0 0.001435 670.29913 709.89893
737.0 0.001357 669.61224 708.60614
766.0 0.001305 668.92090 707.66925
756.0 0.001323 668.22498 707.11359
734.0 0.001362 667.52460 706.98303
738.0 0.001355 666.81976 707.34271
743.0 0.001346 666.11029 708.28784
705.0 0.001418 665.39655 709.95813
719.0 0.001391 664.67841 712.56976
699.0 0.001431 663.95605 714.04926
713.0 0.001403 663.22943 720.29529
686.0 0.001458 662.49872 722.70087
701.0 0.001427 661.76404 743.62036
806.0 0.001241 661.02502 791.28339
883.0 0.001133 660.28198 892.11182
1015.0 0.000985 659.53497 1101.13867
1420.0 0.000704 658.78406 1468.82861
1960.0 0.000510 658.02948 2010.34680
2643.0 0.000378 657.27112 2656.80029
3359.0 0.0002977 656.50867 3235.78271
3617.0 0.0002765 655.74286 3533.35254
3668.0 0.0002726 654.97327 3441.72095
3466.0 0.0002885 654.20026 3054.53418
2682.0 0.000373 653.42346 2535.69995
2042.0 0.000490 652.64331 1999.70313
1628.0 0.000614 651.85962 1529.02100
1205.0 0.000830 651.07281 1174.44165
938.0 0.001066 650.28259 942.68591
717.0 0.001395 649.48889 810.33203
644.0 0.001553 648.69220 743.23987
690.0 0.001449 647.89233 711.31494
651.0 0.001536 647.08954 695.37671
610.0 0.001639 646.28351 686.03149
616.0 0.001623 645.47449 679.51636
611.0 0.001637 644.66223 674.48431
597.0 0.001675 643.84760 670.41821
598.0 0.001672 643.02985 667.06244
610.0 0.001639 642.20947 664.26318
629.0 0.001590 641.38635 661.91431
602.0 0.001661 640.56049 659.94495
579.0 0.001727 639.73218 658.30829
641.0 0.001560 638.90106 656.97528
615.0 0.001626 638.06781 655.93652
584.0 0.001712 637.23157 655.19690
597.0 0.001675 636.39325 654.78186
630.0 0.001587 635.55255 654.73822
559.0 0.001789 634.70947 655.15149
628.0 0.001592 633.86438 656.18616
604.0 0.001656 633.01697 658.23206
602.0 0.001661 632.16711 662.34387
637.0 0.001570 631.31592 671.34875
650.0 0.001538 630.46204 691.99921
701.0 0.001427 629.60651 737.66498
743.0 0.001346 628.74872 828.93665
999.0 0.001001 627.88934 986.75903
1208.0 0.000828 627.02820 1215.00867
1469.0 0.000681 626.16516 1480.50488
1856.0 0.000539 625.30035 1709.15857
1912.0 0.000523 624.43378 1815.60486
1948.0 0.000513 623.56567 1764.37769
1772.0 0.000564 622.69617 1600.89294
1440.0 0.000694 621.82501 1388.27893
1199.0 0.000834 620.95221 1172.79285
901.0 0.001110 620.07813 982.68835
823.0 0.001215 619.20282 837.17255
703.0 0.001422 618.32599 741.13416
686.0 0.001458 617.44788 685.20532
616.0 0.001623 616.56873 656.12756
598.0 0.001672 615.68805 641.79401
603.0 0.001658 614.80652 634.29614
589.0 0.001698 613.92419 629.65173
578.0 0.001730 613.04010 626.22876
644.0 0.001553 612.15546 623.43433
651.0 0.001536 611.26978 621.03687
590.0 0.001695 610.38293 618.92542
599.0 0.001669 609.49567 617.03040
615.0 0.001626 608.60736 615.30267
596.0 0.001678 607.71844 613.70746
583.0 0.001715 606.82849 612.21753
616.0 0.001623 605.93799 610.81274
609.0 0.001642 605.04706 609.47803
578.0 0.001730 604.15521 608.20038
575.0 0.001739 603.26312 606.97083
596.0 0.001678 602.37024 605.78082
613.0 0.001631 601.47687 609.69763
658.0 0.001520 600.58337 608.82629
659.0 0.001517 599.68933 607.99927
591.0 0.001692 598.79504 609.10028
599.0 0.001669 597.90002 608.45264
577.0 0.001733 597.00513 607.85577
618.0 0.001618 596.11005 607.31097
625.0 0.001600 595.21454 606.82074
621.0 0.001610 594.31927 606.38910
608.0 0.001645 593.42358 606.02039
632.0 0.001582 592.52765 605.72046
623.0 0.001605 591.63208 605.49652
622.0 0.001608 590.73615 605.35657
605.0 0.001653 589.84058 605.31097
614.0 0.001629 588.94476 605.37213
587.0 0.001704 588.04913 604.69232
603.0 0.001658 587.15375 605.05408
602.0 0.001661 586.25848 605.57373
639.0 0.001565 585.36365 605.94745
632.0 0.001582 584.46869 606.88416
644.0 0.001553 583.57404 608.07666
645.0 0.001550 582.68011 609.57440
680.0 0.001471 581.78583 611.44080
595.0 0.001681 580.89270 613.75439
635.0 0.001575 579.99939 616.61780
664.0 0.001506 579.10669 620.63000
678.0 0.001475 578.21460 625.05420
701.0 0.001427 577.32288 630.57281
690.0 0.001449 576.43182 637.50574
680.0 0.001471 575.54102 646.50549
683.0 0.001464 574.65082 657.98248
746.0 0.001340 573.76147 673.66467
741.0 0.001350 572.87256 697.48602
826.0 0.001211 571.98450 740.02191
885.0 0.001130 571.09705 827.81195
1055.0 0.000948 570.21002 1017.44562
1405.0 0.000712 569.32428 1405.08691
2043.0 0.000489 568.43884 2108.34253
3083.0 0.0003244 567.55463 3194.41138
4582.0 0.0002182 566.67090 4572.37842
5933.0 0.0001685 565.78766 5927.63574
6653.0 0.0001503 564.90576 6803.46045
6837.0 0.0001463 564.02454 6872.49365
6437.0 0.0001554 563.14465 6228.86816
5288.0 0.0001891 562.26538 5225.19434
3964.0 0.0002523 561.38672 4119.07178
2973.0 0.0003364 560.50964 3058.88135
2143.0 0.000467 559.63312 2169.39453
1464.0 0.000683 558.75769 1518.83997
989.0 0.001011 557.88324 1101.86731
732.0 0.001366 557.01001 867.10962
667.0 0.001499 556.13794 748.32404
623.0 0.001605 555.26654 690.64978
609.0 0.001642 554.39642 660.72363
600.0 0.001667 553.52759 642.60114
617.0 0.001621 552.65967 629.97333
589.0 0.001698 551.79272 620.56622
621.0 0.001610 550.92712 613.59039
556.0 0.001799 550.06299 609.02893
597.0 0.001675 549.19971 607.86908
611.0 0.001637 548.33740 613.04077
664.0 0.001506 547.47705 630.68274
628.0 0.001592 546.61713 670.47998
728.0 0.001374 545.75909 742.56750
864.0 0.001157 544.90192 849.62793
1070.0 0.000935 544.04608 977.11127
1158.0 0.000864 543.19159 1090.67029
1202.0 0.000832 542.33838 1148.67566
1206.0 0.000829 541.48639 1131.02502
1166.0 0.000858 540.63574 1057.40967
981.0 0.001019 539.78632 959.88879
877.0 0.001140 538.93842 857.52386
775.0 0.001290 538.09155 762.00189
671.0 0.001490 537.24646 683.68030
648.0 0.001543 536.40234 627.22772
591.0 0.001692 535.55957 591.27460
571.0 0.001751 534.71863 570.77765
550.0 0.001818 533.87854 559.81940
535.0 0.001869 533.04028 553.78418
534.0 0.001873 532.20300 550.37714
548.0 0.001825 531.36707 547.54169
545.0 0.001835 530.53290 545.17914
552.0 0.001812 529.69989 543.10077
552.0 0.001812 528.86835 536.53149
533.0 0.001876 528.03815 535.03992
542.0 0.001845 527.20947 533.65747
495.0 0.002020 526.38220 530.48889
556.0 0.001799 525.55640 529.35297
584.0 0.001712 524.73206 528.27045
522.0 0.001916 523.90881 527.23230
560.0 0.001786 523.08728 526.23145
518.0 0.001931 522.26715 525.26312
561.0 0.001783 521.44836 524.32245
572.0 0.001748 520.63110 523.47723
515.0 0.001942 519.81525 522.58624
524.0 0.001908 519.00067 521.71576
524.0 0.001908 518.18774 520.86420
479.0 0.002088 517.37634 520.05743
514.0 0.001946 516.56610 519.24188
475.0 0.002105 515.75739 518.44293
499.0 0.002004 514.94995 517.66077
484.0 0.002066 514.14435 516.89575
514.0 0.001946 513.33960 516.14807
502.0 0.001992 512.53687 515.41870
447.0 0.002237 511.73523 514.70880
486.0 0.002058 510.93494 514.01990
497.0 0.002012 510.13657 513.35449
515.0 0.001942 509.33914 512.71442
509.0 0.001965 508.54333 511.62540
490.0 0.002041 507.74896 511.06995
513.0 0.001949 506.95572 510.55121
500.0 0.002000 506.16428 510.07581
496.0 0.002016 505.37390 509.47501
502.0 0.001992 504.58524 509.12149
519.0 0.001927 503.79770 508.84299
497.0 0.002012 503.01151 508.65765
493.0 0.002028 502.22708 508.58865
504.0 0.001984 501.44363 508.66748
498.0 0.002008 500.66174 508.93753
545.0 0.001835 499.88126 509.46320
509.0 0.001965 499.10193 510.35303
521.0 0.001919 498.32440 511.83875
529.0 0.001890 497.54791 514.51636
506.0 0.001976 496.77286 519.95850
512.0 0.001953 495.99921 532.86914
587.0 0.001704 495.22656 559.02936
591.0 0.001692 494.45572 611.27130
754.0 0.001326 493.68582 702.51965
865.0 0.001156 492.91757 837.59088
1041.0 0.000961 492.15042 1000.01721
1197.0 0.000835 491.38449 1149.49414
1295.0 0.000772 490.62015 1233.88867
1307.0 0.000765 489.85703 1224.33838
1281.0 0.000781 489.09515 1142.00134
1150.0 0.000870 488.33456 1027.87366
853.0 0.001172 487.57513 906.29852
782.0 0.001279 486.81708 789.32959
737.0 0.001357 486.06042 689.23779
593.0 0.001686 485.30475 615.04498
529.0 0.001890 484.55063 569.15143
566.0 0.001767 483.79752 549.21338
584.0 0.001712 483.04572 550.31189
557.0 0.001795 482.29514 566.24445
640.0 0.001563 481.54593 589.18243
609.0 0.001642 480.79770 609.42194
651.0 0.001536 480.05057 617.68384
629.0 0.001590 479.30502 610.79108
650.0 0.001538 478.56052 593.78424
578.0 0.001730 477.81735 573.07239
606.0 0.001650 477.07498 551.83545
535.0 0.001869 476.33401 531.84753
492.0 0.002033 475.59439 515.02716
490.0 0.002041 474.85571 502.48785
476.0 0.002101 474.11823 494.19495
501.0 0.001996 473.38171 489.29242
485.0 0.002062 472.64670 486.63516
517.0 0.001934 471.91266 485.25211
477.0 0.002096 471.17969 484.54388
482.0 0.002075 470.44785 484.22949
496.0 0.002016 469.71710 484.21259
501.0 0.001996 468.98743 484.48404
476.0 0.002101 468.25906 485.07663
479.0 0.002088 467.53156 486.05212
486.0 0.002058 466.80533 487.50558
473.0 0.002114 466.08014 489.58899
480.0 0.002083 465.35587 492.57977
543.0 0.001842 464.63290 497.11310
512.0 0.001953 463.91080 504.85925
560.0 0.001786 463.18982 520.13336
593.0 0.001686 462.47012 552.82458
736.0 0.001359 461.75104 621.56171
905.0 0.001105 461.03336 753.13177
1130.0 0.000885 460.31653 972.20032
1346.0 0.000743 459.60086 1278.95642
1565.0 0.000639 458.88617 1626.52417
1881.0 0.000532 458.17227 1918.89832
1962.0 0.000510 457.45978 2050.50757
1933.0 0.000517 456.74799 1988.32251
1830.0 0.000546 456.03748 1794.09363
1468.0 0.000681 455.32794 1551.98572
1110.0 0.000901 454.61914 1301.50000
1028.0 0.000973 453.91168 1063.07458
884.0 0.001131 453.20486 858.17670
700.0 0.001429 452.49924 703.06036
634.0 0.001577 451.79459 600.04382
502.0 0.001992 451.09094 539.46356
485.0 0.002062 450.38818 507.14896
488.0 0.002049 449.68655 490.78314
473.0 0.002114 448.98584 481.95911
456.0 0.002193 448.28613 476.45798
488.0 0.002049 447.58725 472.49219
484.0 0.002066 446.88937 469.37122
458.0 0.002183 446.19257 466.81100
515.0 0.001942 445.49670 464.66925
420.0 0.002381 444.80173 462.85651
498.0 0.002008 444.10779 461.31137
479.0 0.002088 443.41476 459.91852
479.0 0.002088 442.72260 458.79065
492.0 0.002033 442.03180 457.83121
490.0 0.002041 441.34140 457.02408
474.0 0.002110 440.65222 456.33240
476.0 0.002101 439.96405 455.80502
492.0 0.002033 439.27679 455.41287
462.0 0.002165 438.59061 455.15851
452.0 0.002212 437.90521 455.04831
469.0 0.002132 437.22061 455.09296
512.0 0.001953 436.53738 455.30771
441.0 0.002268 435.85483 455.71347
480.0 0.002083 435.17358 456.33722
503.0 0.001988 434.49304 457.21442
499.0 0.002004 433.81342 458.39163
511.0 0.001957 433.13489 459.92783
478.0 0.002092 432.45709 461.90198
449.0 0.002227 431.78070 464.41660
495.0 0.002020 431.10501 467.61066
479.0 0.002088 430.43036 471.67276
483.0 0.002070 429.75668 476.87033
554.0 0.001805 429.08395 483.63211
514.0 0.001946 428.41235 492.77667
509.0 0.001965 427.74170 506.27548
592.0 0.001689 427.07184 529.28668
607.0 0.001647 426.40329 574.61884
683.0 0.001464 425.73557 669.79413
877.0 0.001140 425.06897 862.43903
1240.0 0.000806 424.40335 1213.75439
1764.0 0.000567 423.73871 1767.25830
2645.0 0.000378 423.07523 2496.48755
3308.0 0.0003023 422.41263 3263.24170
3663.0 0.0002730 421.75128 3838.65601
3775.0 0.0002649 421.09070 4012.46484
3658.0 0.0002734 420.43124 3774.49561
3367.0 0.0002970 419.77304 3307.25781
2644.0 0.000378 419.11578 2773.47485
1992.0 0.000502 418.45969 2233.95850
1596.0 0.000627 417.80457 1721.19189
1286.0 0.000778 417.15054 1283.13416
874.0 0.001144 416.49783 952.36969
647.0 0.001546 415.84601 731.86163
528.0 0.001894 415.19543 601.90186
450.0 0.002222 414.54584 532.56946
526.0 0.001901 413.89731 497.05710
492.0 0.002033 413.25027 477.80783
489.0 0.002045 412.60419 465.79462
513.0 0.001949 411.95938 457.15323
472.0 0.002119 411.31558 450.35953
460.0 0.002174 410.67294 444.78195
397.0 0.002519 410.03174 440.09482
403.0 0.002481 409.39166 436.09015
464.0 0.002155 408.75272 432.62344
432.0 0.002315 408.11505 429.58493
409.0 0.002445 407.47855 426.89328
425.0 0.002353 406.84335 424.48557
417.0 0.002398 406.20944 422.31125
453.0 0.002208 405.57678 420.33209
423.0 0.002364 404.94537 418.51639
417.0 0.002398 404.31534 416.83908
376.0 0.002660 403.68661 415.28046
389.0 0.002571 403.05914 413.82278
394.0 0.002538 402.43298 412.45285
381.0 0.002625 401.80829 411.15875
377.0 0.002653 401.18481 409.93094
390.0 0.002564 400.56287 408.76144
406.0 0.002463 399.94214 407.64316
381.0 0.002625 399.32306 406.57059
416.0 0.002404 398.70514 405.53784
375.0 0.002667 398.08865 404.54138
380.0 0.002632 397.47385 403.58032
344.0 0.002907 396.86023 402.64536
360.0 0.002778 396.24835 401.73679
386.0 0.002591 395.63782 400.85184
351.0 0.002849 395.02859 399.98956
364.0 0.002747 394.42126 399.14615
383.0 0.002611 393.81516 398.32065
386.0 0.002591 393.21088 397.51172
382.0 0.002618 392.60785 396.71802
386.0 0.002591 392.00647 395.93842
360.0 0.002778 391.40683 395.18170
390.0 0.002564 390.80862 394.42743
394.0 0.002538 390.21222 393.68475
385.0 0.002597 389.61728 392.95227
381.0 0.002625 389.02405 390.02548
407.0 0.002457 388.43243 389.39520
397.0 0.002519 387.84262 388.76923
377.0 0.002653 387.25446 388.14713
363.0 0.002755 386.66809 386.69528
348.0 0.002874 386.08328 386.11185
412.0 0.002427 385.50040 385.53043
351.0 0.002849 384.91913 384.95081
380.0 0.002632 384.33969 384.37308
353.0 0.002833 383.76199 383.79730
390.0 0.002564 383.18613 383.22351
398.0 0.002513 382.61230 382.65186
383.0 0.002611 382.04004 382.08200
350.0 0.002857 381.46994 381.51450
369.0 0.002710 380.90134 380.94913
353.0 0.002833 380.33481 380.38577
399.0 0.002506 379.77023 379.82486
354.0 0.002825 379.20761 379.26633
377.0 0.002653 378.64703 378.71030
354.0 0.002825 378.08820 378.15646
353.0 0.002833 377.53143 377.60550
377.0 0.002653 376.97659 377.05750
379.0 0.002639 376.42392 376.51233
358.0 0.002793 375.87323 375.97058
368.0 0.002717 375.32449 375.43207
388.0 0.002577 374.77792 374.89774
394.0 0.002538 374.23334 374.36774
330.0 0.003030 373.69098 373.84311
370.0 0.002703 373.15073 373.32596
358.0 0.002793 372.61243 372.82028
374.0 0.002674 372.07648 372.33752
357.0 0.002801 371.54263 371.90228
416.0 0.002404 371.01089 371.56149
378.0 0.002646 370.48154 371.38336
398.0 0.002513 369.95432 371.43579
396.0 0.002525 369.42917 371.73376
376.0 0.002660 368.90637 372.18106
360.0 0.002778 368.38589 372.55130
351.0 0.002849 367.86761 372.56323
404.0 0.002475 367.35190 372.08298
378.0 0.002646 366.83813 371.28714
387.0 0.002584 366.32700 370.51367
404.0 0.002475 365.81787 370.06293
324.0 0.003086 365.31146 370.36237
374.0 0.002674 364.80725 371.45206
398.0 0.002513 364.30539 373.24426
364.0 0.002747 363.80615 376.45883
377.0 0.002653 363.30902 378.44821
396.0 0.002525 362.81476 379.07312
396.0 0.002525 362.32242 378.10880
377.0 0.002653 361.83279 376.37170
388.0 0.002577 361.34583 373.95447
362.0 0.002762 360.86111 371.52869
401.0 0.002494 360.37909 369.14166
347.0 0.002882 359.89957 366.90244
355.0 0.002817 359.42242 364.98566
370.0 0.002703 358.94803 363.48734
405.0 0.002469 358.47610 362.39880
361.0 0.002770 358.00699 361.63589
363.0 0.002755 357.54013 361.08823
398.0 0.002513 357.07605 360.66541
358.0 0.002793 356.61465 360.31125
380.0 0.002632 356.15591 359.99878
392.0 0.002551 355.69971 359.71747
377.0 0.002653 355.24622 359.46442
391.0 0.002558 354.79538 359.23923
338.0 0.002959 354.34717 359.04379
380.0 0.002632 353.90176 358.88055
336.0 0.002976 353.45901 358.75204
372.0 0.002688 353.01923 358.66245
346.0 0.002890 352.58179 358.61612
348.0 0.002874 352.14740 358.61880
347.0 0.002882 351.71555 358.67737
377.0 0.002653 351.28671 358.80023
393.0 0.002545 350.86041 358.99722
384.0 0.002604 350.43704 359.28119
396.0 0.002525 350.01660 359.66711
378.0 0.002646 349.59872 360.17468
376.0 0.002660 349.18387 360.82745
354.0 0.002825 348.77173 361.65619
367.0 0.002725 348.36237 362.70050
402.0 0.002488 347.95615 364.01108
382.0 0.002618 347.55243 367.13928
388.0 0.002577 347.15189 369.27365
383.0 0.002611 346.75394 371.98505
372.0 0.002688 346.35895 375.52661
381.0 0.002625 345.96704 380.97717
410.0 0.002439 345.57782 388.45963
384.0 0.002604 345.19162 401.19907
448.0 0.002232 344.80832 424.70804
464.0 0.002155 344.42789 468.81165
611.0 0.001637 344.05038 548.36536
698.0 0.001433 343.67584 681.53650
904.0 0.001106 343.30426 883.39813
1204.0 0.000831 342.93558 1154.76782
1510.0 0.000662 342.56979 1469.69189
1811.0 0.000552 342.20697 1773.25110
1931.0 0.000518 341.84726 1993.24292
1929.0 0.000518 341.49045 2062.59302
1894.0 0.000528 341.13660 1964.95044
1845.0 0.000542 340.78558 1759.08618
1560.0 0.000641 340.43768 1520.26416
1183.0 0.000845 340.09262 1285.88110
976.0 0.001025 339.75058 1062.78760
791.0 0.001264 339.41165 858.74207
685.0 0.001460 339.07550 688.99744
556.0 0.001799 338.74249 562.60571
451.0 0.002217 338.41235 478.56104
440.0 0.002273 338.08539 428.52692
445.0 0.002247 337.76120 401.23315
392.0 0.002551 337.43997 386.88251
403.0 0.002481 337.12198 379.03784
391.0 0.002558 336.80670 374.30646
440.0 0.002273 336.49460 371.18185
361.0 0.002770 336.18530 369.05170
350.0 0.002857 335.87906 367.66971
400.0 0.002500 335.57584 366.92899
399.0 0.002506 335.27554 366.78683
418.0 0.002392 334.97824 367.24396
393.0 0.002545 334.68399 368.33948
365.0 0.002740 334.39252 370.15680
375.0 0.002667 334.10422 372.84119
399.0 0.002506 333.81870 376.65683
419.0 0.002387 333.53619 382.15732
464.0 0.002155 333.25668 390.71078
423.0 0.002364 332.98010 405.78918
435.0 0.002299 332.70642 435.53323
502.0 0.001992 332.43576 496.29330
578.0 0.001730 332.16794 614.35840
829.0 0.001206 331.90308 820.69073
1134.0 0.000882 331.64111 1133.60815
1519.0 0.000658 331.38208 1533.53467
1895.0 0.000528 331.12579 1945.07886
2175.0 0.000460 330.87268 2246.48535
2320.0 0.000431 330.62238 2331.00952
2304.0 0.000434 330.37479 2200.48950
2168.0 0.000461 330.13028 1958.58276
1683.0 0.000594 329.88840 1695.66943
1317.0 0.000759 329.64957 1438.36487
1051.0 0.000951 329.41345 1183.22791
979.0 0.001021 329.18024 942.63916
714.0 0.001401 328.94989 739.52509
566.0 0.001767 328.72202 587.43268
439.0 0.002278 328.49741 486.63138
446.0 0.002242 328.27530 426.96869
373.0 0.002681 328.05606 394.47742
380.0 0.002632 327.83960 377.13147
402.0 0.002488 327.62579 367.04514
358.0 0.002793 327.41483 360.44424
366.0 0.002732 327.20645 355.69998
338.0 0.002959 327.00095 350.99298
345.0 0.002899 326.79807 347.87161
342.0 0.002924 326.59784 345.25369
367.0 0.002725 326.40027 343.07834
352.0 0.002841 326.20526 340.84415
354.0 0.002825 326.01315 339.23294
333.0 0.003003 325.82343 337.83157
360.0 0.002778 325.63647 336.58560
348.0 0.002874 325.45197 335.47717
343.0 0.002915 325.27014 334.48395
375.0 0.002667 325.09073 333.58932
350.0 0.002857 324.91397 332.78082
334.0 0.002994 324.73975 332.04047
314.0 0.003185 324.56799 331.36194
338.0 0.002959 324.39871 330.73764
331.0 0.003021 324.23172 330.16028
289.0 0.003460 324.06754 329.62436
319.0 0.003135 323.90552 329.12512
349.0 0.002865 323.74600 328.65854
326.0 0.003067 323.58890 328.22089
340.0 0.002941 323.43396 327.80951
319.0 0.003135 323.28159 327.42169
335.0 0.002985 323.13138 327.05505
278.0 0.00360 322.98370 326.70782
308.0 0.003247 322.83826 326.37814
301.0 0.003322 322.69492 326.06454
300.0 0.003333 322.55399 325.76578
306.0 0.003268 322.41510 325.48062
303.0 0.003300 322.27856 325.20825
308.0 0.003247 322.14420 324.94736
323.0 0.003096 322.01184 324.69742
331.0 0.003021 321.88190 324.45764
318.0 0.003145 321.75375 324.22751
315.0 0.003175 321.62784 324.03055
308.0 0.003247 321.50403 323.81885
341.0 0.002933 321.38214 322.14178
322.0 0.003106 321.26233 322.00153
327.0 0.003058 321.14447 321.86557
310.0 0.003226 321.02859 321.74362
315.0 0.003175 320.91473 321.61743
291.0 0.003436 320.80267 320.94995
318.0 0.003145 320.69266 320.85349
292.0 0.003425 320.58432 320.76105
311.0 0.003215 320.47791 320.67337
294.0 0.003401 320.37335 320.59079
289.0 0.003460 320.27042 320.51477
331.0 0.003021 320.16953 320.56131
308.0 0.003247 320.07019 320.50833
318.0 0.003145 319.97247 320.47266
308.0 0.003247 319.87656 320.47052
306.0 0.003268 319.78229 320.58206
327.0 0.003058 319.68954 320.80405
319.0 0.003135 319.59857 321.31479
331.0 0.003021 319.50903 322.29605
316.0 0.003165 319.42120 323.90298
338.0 0.002959 319.33466 326.13010
308.0 0.003247 319.24969 328.67889
329.0 0.003040 319.16623 330.93231
353.0 0.002833 319.08423 332.16452
344.0 0.002907 319.00360 332.04874
337.0 0.002967 318.92426 330.97333
351.0 0.002849 318.84637 329.54013
329.0 0.003040 318.76968 328.02716
339.0 0.002950 318.69434 326.43689
323.0 0.003096 318.62027 324.79163
314.0 0.003185 318.54749 323.24960
336.0 0.002976 318.47592 321.95868
315.0 0.003175 318.40543 320.97653
311.0 0.003215 318.33615 320.29297
337.0 0.002967 318.26785 319.85565
290.0 0.003448 318.20078 319.59622
322.0 0.003106 318.13474 319.45544
338.0 0.002959 318.06964 319.39276
315.0 0.003175 318.00558 319.38483
318.0 0.003145 317.94247 319.42218
324.0 0.003086 317.88031 319.50946
346.0 0.002890 317.81912 319.67349
335.0 0.002985 317.75873 319.98712
275.0 0.00364 317.69910 320.61047
317.0 0.003155 317.64050 321.83759
305.0 0.003279 317.58252 324.09106
350.0 0.002857 317.52536 327.78943
312.0 0.003205 317.46884 333.06177
342.0 0.002924 317.41315 339.39600
306.0 0.003268 317.35806 345.47330
335.0 0.002985 317.30356 349.46930
348.0 0.002874 317.24973 350.14523
302.0 0.003311 317.19647 348.06528
320.0 0.003125 317.14362 345.02875
318.0 0.003145 317.09146 342.50266
334.0 0.002994 317.03973 341.33585
309.0 0.003236 316.98849 342.54883
350.0 0.002857 316.93762 348.07324
348.0 0.002874 316.88712 360.21436
372.0 0.002688 316.83707 380.73547
439.0 0.002278 316.78729 406.81494
399.0 0.002506 316.73788 433.54868
431.0 0.002320 316.68863 452.58725
432.0 0.002315 316.63965 456.98090
428.0 0.002336 316.59100 447.48773
487.0 0.002053 316.54248 430.87625
414.0 0.002415 316.49408 413.57120
394.0 0.002538 316.44586 397.27164
356.0 0.002809 316.39771 381.11514
380.0 0.002632 316.34964 365.12677
362.0 0.002762 316.30154 350.77429
333.0 0.003003 316.25354 339.34189
329.0 0.003040 316.20557 331.26489
311.0 0.003215 316.15744 326.19077
304.0 0.003289 316.10928 323.30219
341.0 0.002933 316.06113 321.74081
296.0 0.003378 316.01263 320.89972
332.0 0.003012 315.96417 320.40689
356.0 0.002809 315.91550 320.08704
325.0 0.003077 315.86652 319.86340
315.0 0.003175 315.81738 319.96234
307.0 0.003257 315.76782 319.87357
335.0 0.002985 315.71814 319.83099
322.0 0.003106 315.66806 319.82977
332.0 0.003012 315.61771 319.86838
338.0 0.002959 315.56680 320.04083
312.0 0.003205 315.51569 320.16132
359.0 0.002786 315.46402 320.32358
341.0 0.002933 315.41196 320.53104
316.0 0.003165 315.35944 320.78845
324.0 0.003086 315.30634 321.10287
332.0 0.003012 315.25269 321.48282
317.0 0.003155 315.19852 321.94019
335.0 0.002985 315.14377 322.48962
342.0 0.002924 315.08844 323.15076
320.0 0.003125 315.03253 323.94971
327.0 0.003058 314.97577 324.92072
393.0 0.002545 314.91846 326.11093
349.0 0.002865 314.86047 327.58981
351.0 0.002849 314.80170 329.47592
322.0 0.003106 314.74222 332.01462
325.0 0.003077 314.68192 335.79132
358.0 0.002793 314.62082 342.36740
342.0 0.002924 314.55890 354.57373
370.0 0.002703 314.49625 378.39685
437.0 0.002288 314.43262 424.01318
495.0 0.002020 314.36816 498.32449
650.0 0.001538 314.30276 607.42761
744.0 0.001344 314.23642 743.59528
893.0 0.001120 314.16907 881.82019
1015.0 0.000985 314.10086 983.16357
1044.0 0.000958 314.03152 1011.92914
1078.0 0.000928 313.96130 968.84650
970.0 0.001031 313.89011 888.85352
868.0 0.001152 313.81775 804.54156
735.0 0.001361 313.74429 726.80627
629.0 0.001590 313.66977 650.51593
587.0 0.001704 313.59421 573.39368
506.0 0.001976 313.51749 501.69699
493.0 0.002028 313.43967 442.56000
415.0 0.002410 313.36053 399.59750
380.0 0.002632 313.28024 372.10529
342.0 0.002924 313.19888 356.90018
344.0 0.002907 313.11612 350.33807
333.0 0.003003 313.03244 350.25168
358.0 0.002793 312.94733 356.85327
388.0 0.002577 312.86084 372.60617
436.0 0.002294 312.77328 400.99020
470.0 0.002128 312.68427 444.19052
526.0 0.001901 312.59412 499.14426
568.0 0.001761 312.50250 556.37036
588.0 0.001701 312.40961 599.92725
606.0 0.001650 312.31534 614.78955
634.0 0.001577 312.21979 599.40924
647.0 0.001546 312.12280 567.27039
567.0 0.001764 312.02448 532.71216
526.0 0.001901 311.92465 501.12692
494.0 0.002024 311.82343 470.78403
419.0 0.002387 311.72079 440.03027
416.0 0.002404 311.61679 411.02078
399.0 0.002506 311.51144 386.91940
350.0 0.002857 311.40445 369.55066
362.0 0.002762 311.29611 359.03928
338.0 0.002959 311.18625 354.27832
365.0 0.002740 311.07492 353.81030
334.0 0.002994 310.96204 356.68323
375.0 0.002667 310.84769 363.03049
384.0 0.002604 310.73178 374.56247
445.0 0.002247 310.61456 395.21454
423.0 0.002364 310.49561 432.01883
508.0 0.001969 310.37540 495.89343
551.0 0.001815 310.25333 601.43433
753.0 0.001328 310.12979 763.94891
980.0 0.001020 310.00485 991.65796
1389.0 0.000720 309.87817 1275.28760
1653.0 0.000605 309.75006 1580.90100
1723.0 0.000580 309.62036 1846.84741
1779.0 0.000562 309.48914 1993.01001
1922.0 0.000520 309.35623 1969.56262
1955.0 0.000512 309.22183 1811.39612
1756.0 0.000569 309.08594 1602.58826
1317.0 0.000759 308.94827 1401.46619
1082.0 0.000924 308.80914 1217.35596
972.0 0.001029 308.66843 1037.41467
883.0 0.001133 308.52612 859.83942
743.0 0.001346 308.38232 699.86176
535.0 0.001869 308.23682 571.46295
439.0 0.002278 308.08966 479.24158
428.0 0.002336 307.94092 420.59787
338.0 0.002959 307.79065 387.13019
365.0 0.002740 307.63892 370.47876
397.0 0.002519 307.48550 364.57312
362.0 0.002762 307.33047 367.42099
395.0 0.002532 307.17398 379.92630
410.0 0.002439 307.01584 403.93600
483.0 0.002070 306.85614 439.74564
538.0 0.001859 306.69467 483.21719
561.0 0.001783 306.53189 524.91687
549.0 0.001821 306.36740 551.68353
566.0 0.001767 306.20142 554.17035
554.0 0.001805 306.03384 535.71399
557.0 0.001795 305.86475 508.78821
493.0 0.002028 305.69409 483.29355
437.0 0.002288 305.52197 462.07355
410.0 0.002439 305.34836 445.30856
410.0 0.002439 305.17288 435.04831
422.0 0.002370 304.99619 437.59570
475.0 0.002105 304.81784 458.96045
508.0 0.001969 304.63815 500.27234
524.0 0.001908 304.45682 555.00488
581.0 0.001721 304.27393 607.62042
613.0 0.001631 304.08969 638.26324
638.0 0.001567 303.90402 634.91321
617.0 0.001621 303.71680 604.53955
625.0 0.001600 303.52820 564.67999
543.0 0.001842 303.33817 526.80719
435.0 0.002299 303.14661 492.59955
419.0 0.002387 302.95358 459.05695
435.0 0.002299 302.75931 424.17953
385.0 0.002597 302.56351 391.67758
363.0 0.002755 302.36636 364.67886
344.0 0.002907 302.16794 344.75180
341.0 0.002933 301.96799 331.58716
344.0 0.002907 301.76685 323.88840
315.0 0.003175 301.56430 319.37482
319.0 0.003135 301.36038 316.78232
338.0 0.002959 301.15524 315.01486
299.0 0.003344 300.94864 313.92923
360.0 0.002778 300.74091 313.13315
315.0 0.003175 300.53189 311.16138
311.0 0.003215 300.32156 310.70270
330.0 0.003030 300.11014 310.44675
316.0 0.003165 299.89725 310.31805
315.0 0.003175 299.68341 310.31671
287.0 0.003484 299.46835 309.93024
295.0 0.003390 299.25195 310.23148
288.0 0.003472 299.03442 310.70566
307.0 0.003257 298.81583 311.39603
297.0 0.003367 298.59616 312.38736
323.0 0.003096 298.37537 313.86780
344.0 0.002907 298.15347 316.27066
335.0 0.002985 297.93039 320.53210
323.0 0.003096 297.70645 328.42932
349.0 0.002865 297.48135 342.77112
424.0 0.002358 297.25531 367.04370
457.0 0.002188 297.02832 404.18744
508.0 0.001969 296.80011 454.73672
505.0 0.001980 296.57111 515.22131
546.0 0.001832 296.34128 577.72656
546.0 0.001832 296.11044 632.59406
670.0 0.001493 295.87869 675.41351
725.0 0.001379 295.64609 709.43744
771.0 0.001297 295.41254 735.05615
765.0 0.001307 295.17841 742.58313
707.0 0.001414 294.94327 720.87982
719.0 0.001391 294.70724 672.50482
642.0 0.001558 294.47058 613.22052
608.0 0.001645 294.23315 557.26727
480.0 0.002083 293.99509 509.36426
470.0 0.002128 293.75632 467.15460
431.0 0.002320 293.51678 428.48431
396.0 0.002525 293.27667 394.39871
350.0 0.002857 293.03574 367.08807
336.0 0.002976 292.79440 347.25705
316.0 0.003165 292.55240 334.47363
323.0 0.003096 292.30978 327.37259
310.0 0.003226 292.06668 324.27112
343.0 0.002915 291.82288 324.02499
307.0 0.003257 291.57883 326.09149
314.0 0.003185 291.33441 330.96808
371.0 0.002695 291.08920 340.37811
366.0 0.002732 290.84378 357.54645
401.0 0.002494 290.59793 387.33792
411.0 0.002433 290.35165 435.98962
514.0 0.001946 290.10507 510.07141
656.0 0.001524 289.85815 615.33441
801.0 0.001248 289.61075 751.87347
948.0 0.001055 289.36331 911.70563
1175.0 0.000851 289.11569 1078.48560
1175.0 0.000851 288.86765 1225.77014
1262.0 0.000792 288.61926 1314.44629
1319.0 0.000758 288.37097 1311.56726
1325.0 0.000755 288.12244 1225.58850
1249.0 0.000801 287.87384 1100.84546
999.0 0.001001 287.62500 977.01117
802.0 0.001247 287.37616 867.92590
695.0 0.001439 287.12735 766.36292
632.0 0.001582 286.87833 664.50787
614.0 0.001629 286.62943 566.75397
533.0 0.001876 286.38052 482.13965
406.0 0.002463 286.13162 416.44092
312.0 0.003205 285.88290 370.61584
320.0 0.003125 285.63412 341.62927
315.0 0.003175 285.38562 324.56787
304.0 0.003289 285.13730 314.74841
271.0 0.00369 284.88901 308.83569
273.0 0.00366 284.64099 304.89999
278.0 0.00360 284.39310 301.98181
325.0 0.003077 284.14560 299.64581
274.0 0.00365 283.89841 297.69247
297.0 0.003367 283.65134 296.01947
304.0 0.003289 283.40469 294.56473
322.0 0.003106 283.15842 293.28485
275.0 0.00364 282.91251 292.14691
278.0 0.00360 282.66711 291.16568
292.0 0.003425 282.42200 290.24295
270.0 0.00370 282.17743 289.50720
253.0 0.00395 281.93311 288.73837
312.0 0.003205 281.68964 288.02863
293.0 0.003413 281.44650 287.38428
311.0 0.003215 281.20395 286.76987
293.0 0.003413 280.96198 286.19302
313.0 0.003195 280.72073 285.53915
255.0 0.00392 280.47989 285.03091
276.0 0.00362 280.23987 284.54852
297.0 0.003367 280.00046 284.08905
287.0 0.003484 279.76175 283.46091
283.0 0.00353 279.52377 283.02087
292.0 0.003425 279.28656 282.62564
297.0 0.003367 279.05011 282.24521
282.0 0.00355 278.81467 281.87842
309.0 0.003236 278.57971 281.52408
273.0 0.00366 278.34576 281.11115
274.0 0.00365 278.11267 280.79340
280.0 0.00357 277.88055 280.47354
293.0 0.003413 277.64920 280.16312
302.0 0.003311 277.41888 279.86124
287.0 0.003484 277.18945 279.56784
246.0 0.00407 276.96118 279.28250
279.0 0.00358 276.73389 279.00470
289.0 0.003460 276.50751 278.73438
263.0 0.00380 276.28217 278.47449
279.0 0.00358 276.05792 278.21887
263.0 0.00380 275.83490 277.97043
307.0 0.003257 275.61304 277.72934
282.0 0.00355 275.39212 277.49536
263.0 0.00380 275.17242 277.26880
268.0 0.00373 274.95389 277.05112
286.0 0.003497 274.73660 276.84042
290.0 0.003448 274.52066 276.63809
250.0 0.00400 274.30576 276.31714
277.0 0.00361 274.09229 276.13721
263.0 0.00380 273.87997 275.96759
269.0 0.00372 273.66904 275.21307
258.0 0.00388 273.45950 275.08557
265.0 0.00377 273.25125 274.92230
274.0 0.00365 273.04431 274.82419
266.0 0.00376 272.83887 274.74304
287.0 0.003484 272.63467 274.68192
261.0 0.00383 272.43204 274.42328
246.0 0.00407 272.23087 274.42010
280.0 0.00357 272.03094 274.44968
286.0 0.003497 271.83279 274.51984
270.0 0.00370 271.63599 274.63937
269.0 0.00372 271.44061 274.82162
255.0 0.00392 271.24695 275.08603
269.0 0.00372 271.05469 275.46606
272.0 0.00368 270.86392 276.02893
300.0 0.003333 270.67502 276.91849
231.0 0.00433 270.48752 278.44092
280.0 0.00357 270.30164 281.19370
278.0 0.00360 270.11740 286.20612
276.0 0.00362 269.93478 294.99084
314.0 0.003185 269.75394 309.34674
324.0 0.003086 269.57465 330.78058
374.0 0.002674 269.39706 359.49979
407.0 0.002457 269.22122 393.21320
426.0 0.002347 269.04706 426.71768
439.0 0.002278 268.87463 453.29556
453.0 0.002208 268.70401 466.84961
482.0 0.002075 268.53510 464.05899
433.0 0.002309 268.36786 447.88422
420.0 0.002381 268.20251 426.08426
466.0 0.002146 268.03885 404.94614
363.0 0.002755 267.87704 386.89746
405.0 0.002469 267.71710 371.53329
342.0 0.002924 267.55896 358.44641
360.0 0.002778 267.40256 347.24612
340.0 0.002941 267.24811 339.48483
304.0 0.003289 267.09552 334.78821
276.0 0.00362 266.94470 331.03766
321.0 0.003115 266.79578 325.74829
279.0 0.00358 266.64874 318.65021
289.0 0.003460 266.50372 310.92886
337.0 0.002967 266.36047 304.26434
277.0 0.00361 266.21918 299.02359
279.0 0.00358 266.07986 294.52426
273.0 0.00366 265.94226 289.94717
266.0 0.00376 265.80679 285.27466
282.0 0.00355 265.67319 281.03375
318.0 0.003145 265.54156 277.70471
255.0 0.00392 265.41174 275.49857
284.0 0.00352 265.28406 274.31293
282.0 0.00355 265.15817 273.79440
249.0 0.00402 265.03455 273.47488
284.0 0.00352 264.91245 272.98611
277.0 0.00361 264.79266 272.26569
271.0 0.00369 264.67471 271.47437
288.0 0.003472 264.55884 270.76483
276.0 0.00362 264.44482 270.17880
261.0 0.00383 264.33292 269.65768
277.0 0.00361 264.22281 269.13342
272.0 0.00368 264.11490 268.60858
300.0 0.003333 264.00891 268.12912
273.0 0.00366 263.90497 267.73410
278.0 0.00360 263.80298 267.44080
280.0 0.00357 263.70297 267.24582
281.0 0.00356 263.60498 267.13187
278.0 0.00360 263.50906 267.07828
285.0 0.00351 263.41498 267.06891
246.0 0.00407 263.32297 267.09424
284.0 0.00352 263.23291 267.14987
273.0 0.00366 263.14499 267.23532
298.0 0.003356 263.05896 267.35187
275.0 0.00364 262.97485 267.50232
244.0 0.00410 262.89294 267.69040
259.0 0.00386 262.81274 267.92105
296.0 0.003378 262.73471 268.20016
269.0 0.00372 262.65875 268.53525
262.0 0.00382 262.58459 268.93561
286.0 0.003497 262.51257 269.41315
274.0 0.00365 262.44238 269.98264
277.0 0.00361 262.37415 270.66296
283.0 0.00353 262.30801 271.47821
270.0 0.00370 262.24368 272.46005
279.0 0.00358 262.18127 273.65143
245.0 0.00408 262.12100 275.11172
291.0 0.003436 262.06247 276.93460
289.0 0.003460 262.00595 279.29309
281.0 0.00356 261.95151 282.56436
320.0 0.003125 261.89877 287.57773
312.0 0.003205 261.84799 296.32031
308.0 0.003247 261.79910 312.38638
338.0 0.002959 261.75214 342.10980
336.0 0.002976 261.70709 393.44714
484.0 0.002066 261.66400 473.67358
605.0 0.001653 261.62262 584.29144
697.0 0.001435 261.58313 715.76215
745.0 0.001342 261.54553 844.12738
796.0 0.001256 261.50974 933.32062
792.0 0.001263 261.47589 952.12769
915.0 0.001093 261.44376 904.18634
919.0 0.001088 261.41336 824.48206
855.0 0.001170 261.38477 745.96436
669.0 0.001495 261.35803 682.04047
576.0 0.001736 261.33310 627.26727
514.0 0.001946 261.30994 569.49152
511.0 0.001957 261.28845 505.75256
487.0 0.002053 261.26871 442.82996
430.0 0.002326 261.25073 388.08670
367.0 0.002725 261.23450 345.74820
319.0 0.003135 261.21994 316.43301
295.0 0.003390 261.20700 298.02930
304.0 0.003289 261.19580 287.46332
313.0 0.003195 261.18607 281.24686
266.0 0.00376 261.17819 277.51999
255.0 0.00392 261.17191 275.07037
279.0 0.00358 261.16727 273.28857
276.0 0.00362 261.16409 271.90045
255.0 0.00392 261.16260 270.86838
294.0 0.003401 261.16272 269.93460
246.0 0.00407 261.16418 269.15094
269.0 0.00372 261.16739 268.48837
292.0 0.003425 261.17203 267.92377
298.0 0.003356 261.17825 267.44278
296.0 0.003378 261.18582 267.03085
280.0 0.00357 261.19498 266.67770
240.0 0.00417 261.20554 266.37726
267.0 0.00375 261.21747 266.11844
253.0 0.00395 261.23093 265.89774
279.0 0.00358 261.24567 265.72705
270.0 0.00370 261.26190 265.58972
268.0 0.00373 261.27954 265.46216
271.0 0.00369 261.29834 265.36096
291.0 0.003436 261.31854 265.28241
262.0 0.00382 261.34003 265.22617
262.0 0.00382 261.36292 265.19760
267.0 0.00375 261.38690 265.19095
282.0 0.00355 261.41220 265.19830
253.0 0.00395 261.43881 265.22693
270.0 0.00370 261.46646 265.27731
226.0 0.00442 261.49548 265.35104
263.0 0.00380 261.52560 265.45007
292.0 0.003425 261.55685 265.57788
268.0 0.00373 261.58917 265.74039
270.0 0.00370 261.62286 265.95007
247.0 0.00405 261.65738 266.23386
248.0 0.00403 261.69305 266.85834
267.0 0.00375 261.72974 268.10184
267.0 0.00375 261.76740 269.18668
266.0 0.00376 261.80612 270.90424
278.0 0.00360 261.84592 273.45566
294.0 0.003401 261.88654 276.89078
280.0 0.00357 261.92822 281.04733
302.0 0.003311 261.97067 285.37173
291.0 0.003436 262.01416 288.55655
305.0 0.003279 262.05850 289.97571
273.0 0.00366 262.10376 289.73605
305.0 0.003279 262.14969 288.93665
299.0 0.003344 262.19641 288.91248
258.0 0.00388 262.24402 290.51096
339.0 0.002950 262.29245 294.47726
301.0 0.003322 262.34143 301.37781
306.0 0.003268 262.39130 311.37665
315.0 0.003175 262.44186 325.97556
312.0 0.003205 262.49304 344.17282
379.0 0.002639 262.54483 364.16034
380.0 0.002632 262.59741 383.53876
390.0 0.002564 262.65051 400.48944
383.0 0.002611 262.70425 415.02057
415.0 0.002410 262.75842 429.85867
432.0 0.002315 262.81329 451.78864
497.0 0.002012 262.86862 486.40067
560.0 0.001786 262.92432 533.11292
548.0 0.001825 262.98062 583.37488
591.0 0.001692 263.03745 621.21637
624.0 0.001603 263.09451 629.87439
624.0 0.001603 263.15225 606.08105
639.0 0.001565 263.21011 563.42157
626.0 0.001597 263.26840 519.19305
590.0 0.001695 263.32709 483.08472
474.0 0.002110 263.38611 455.40588
430.0 0.002326 263.44534 430.27847
439.0 0.002278 263.50485 403.10059
407.0 0.002457 263.56464 374.69263
382.0 0.002618 263.62466 348.61667
323.0 0.003096 263.68494 327.84451
312.0 0.003205 263.74539 313.90164
319.0 0.003135 263.80597 306.85266
337.0 0.002967 263.86652 305.67398
312.0 0.003205 263.92740 308.78012
338.0 0.002959 263.98834 314.38284
347.0 0.002882 264.04932 320.55026
338.0 0.002959 264.11023 325.32343
323.0 0.003096 264.17139 327.37857
314.0 0.003185 264.23239 326.55124
317.0 0.003155 264.29346 323.88855
350.0 0.002857 264.35446 321.03687
335.0 0.002985 264.41544 319.18762
394.0 0.002538 264.47629 318.76907
355.0 0.002817 264.53699 320.01770
349.0 0.002865 264.59769 323.86996
388.0 0.002577 264.65820 332.97610
350.0 0.002857 264.71854 352.60074
358.0 0.002793 264.77872 390.95657
428.0 0.002336 264.83862 458.33755
571.0 0.001751 264.89838 563.89850
774.0 0.001292 264.95782 709.99292
984.0 0.001016 265.01694 885.70490
1055.0 0.000948 265.07593 1062.67700
1102.0 0.000907 265.13452 1196.90588
1294.0 0.000773 265.19278 1245.95776
1337.0 0.000748 265.25070 1201.88367
1453.0 0.000688 265.30829 1100.90808
1290.0 0.000775 265.36542 990.23370
1016.0 0.000984 265.42215 897.89893
821.0 0.001218 265.47855 826.59900
737.0 0.001357 265.53439 762.42914
725.0 0.001379 265.58987 693.53717
732.0 0.001366 265.64474 621.36737
702.0 0.001425 265.69922 555.02240
564.0 0.001773 265.75314 500.64423
428.0 0.002336 265.80649 458.51776
451.0 0.002217 265.85934 424.98001
344.0 0.002907 265.91162 396.99014
360.0 0.002778 265.96329 374.17468
364.0 0.002747 266.01437 356.93851
341.0 0.002933 266.06479 344.73618
290.0 0.003448 266.11456 335.88272
302.0 0.003311 266.16373 328.13535
300.0 0.003333 266.21219 320.28296
311.0 0.003215 266.26007 312.83084
280.0 0.00357 266.30707 307.10785
296.0 0.003378 266.35349 304.88867
300.0 0.003333 266.39905 307.79874
327.0 0.003058 266.44379 317.35690
340.0 0.002941 266.48804 334.37665
349.0 0.002865 266.53137 358.07849
369.0 0.002710 266.57382 385.30917
423.0 0.002364 266.61551 410.03537
417.0 0.002398 266.65640 425.04358
423.0 0.002364 266.69644 424.97510
445.0 0.002247 266.73569 411.99579
456.0 0.002193 266.77405 393.87769
395.0 0.002532 266.81143 377.01755
364.0 0.002747 266.84793 363.80124
358.0 0.002793 266.88361 353.14850
304.0 0.003289 266.91833 342.10907
332.0 0.003012 266.95221 329.32916
324.0 0.003086 266.98499 315.97214
297.0 0.003367 267.01691 303.71460
273.0 0.00366 267.04785 293.71475
279.0 0.00358 267.07791 286.39047
274.0 0.00365 267.10684 281.52008
239.0 0.00418 267.13492 278.52478
237.0 0.00422 267.16190 276.76187
285.0 0.00351 267.18787 275.70892
256.0 0.00391 267.21280 275.07184
229.0 0.00437 267.23660 274.63867
289.0 0.003460 267.25955 274.35840
283.0 0.00353 267.28140 274.17520
261.0 0.00383 267.30215 274.07043
268.0 0.00373 267.32190 274.03073
281.0 0.00356 267.34048 274.06586
281.0 0.00356 267.35800 274.16418
290.0 0.003448 267.37448 274.34500
283.0 0.00353 267.38980 274.61035
290.0 0.003448 267.40399 274.97559
288.0 0.003472 267.41708 275.46741
241.0 0.00415 267.42908 276.13855
268.0 0.00373 267.44006 277.10306
271.0 0.00369 267.44971 278.61029
260.0 0.00385 267.45834 281.17404
264.0 0.00379 267.46585 285.52298
275.0 0.00364 267.47211 292.96609
293.0 0.003413 267.47729 306.31409
302.0 0.003311 267.48126 326.58084
359.0 0.002786 267.48419 354.17606
383.0 0.002611 267.48593 387.25140
428.0 0.002336 267.48639 420.98871
357.0 0.002801 267.48587 447.89365
431.0 0.002320 267.48392 461.16968
458.0 0.002183 267.48105 460.02606
484.0 0.002066 267.47687 451.32175
458.0 0.002183 267.47162 442.18173
354.0 0.002825 267.46512 435.01065
399.0 0.002506 267.45740 427.17538
390.0 0.002564 267.44852 414.55679
396.0 0.002525 267.43851 395.97635
394.0 0.002538 267.42728 374.48932
373.0 0.002681 267.41495 354.08597
299.0 0.003344 267.40134 337.13077
309.0 0.003236 267.38654 323.87909
275.0 0.00364 267.37061 313.48010
290.0 0.003448 267.35342 305.26694
274.0 0.00365 267.33511 299.39029
273.0 0.00366 267.31573 296.53427
303.0 0.003300 267.29507 297.81860
307.0 0.003257 267.27322 304.70917
305.0 0.003279 267.25031 318.61990
329.0 0.003040 267.22614 340.13629
420.0 0.002381 267.20087 368.20712
396.0 0.002525 267.17432 398.61166
438.0 0.002283 267.14676 424.66559
414.0 0.002415 267.11798 438.71704
444.0 0.002252 267.08798 435.74054
455.0 0.002198 267.05698 420.04483
450.0 0.002222 267.02487 400.15155
424.0 0.002358 266.99149 382.27655
352.0 0.002841 266.95700 368.72830
359.0 0.002786 266.92145 357.79572
344.0 0.002907 266.88474 346.41174
332.0 0.003012 266.84692 332.89288
316.0 0.003165 266.80807 318.50858
293.0 0.003413 266.76794 305.12192
315.0 0.003175 266.72699 294.01727
268.0 0.00373 266.68478 285.74380
288.0 0.003472 266.64157 280.13608
291.0 0.003436 266.59735 276.61102
254.0 0.00394 266.55191 274.48499
289.0 0.003460 266.50549 273.19427
269.0 0.00372 266.45804 272.36426
274.0 0.00365 266.40958 271.78174
269.0 0.00372 266.36005 271.33923
253.0 0.00395 266.30954 270.98499
288.0 0.003472 266.25800 270.69345
259.0 0.00386 266.20547 270.45102
245.0 0.00408 266.15189 270.24884
282.0 0.00355 266.09747 270.08102
272.0 0.00368 266.04202 269.94318
262.0 0.00382 265.98566 269.83209
252.0 0.00397 265.92816 269.74521
257.0 0.00389 265.87000 269.68103
273.0 0.00366 265.81085 269.63882
279.0 0.00358 265.75067 269.61801
259.0 0.00386 265.68967 269.61844
278.0 0.00360 265.62781 269.64108
224.0 0.00446 265.56491 269.68646
250.0 0.00400 265.50137 269.75632
267.0 0.00375 265.43689 269.85245
268.0 0.00373 265.37155 269.97803
269.0 0.00372 265.30530 270.13629
276.0 0.00362 265.23856 270.33139
301.0 0.003322 265.17075 270.56873
288.0 0.003472 265.10220 270.70636
275.0 0.00364 265.03287 271.05481
293.0 0.003413 264.96286 271.47116
250.0 0.00400 264.89203 271.96890
290.0 0.003448 264.82050 272.56519
300.0 0.003333 264.74826 273.23236
275.0 0.00364 264.67532 274.25500
261.0 0.00383 264.60168 275.34161
285.0 0.00351 264.52734 276.72522
285.0 0.00351 264.45245 278.58823
277.0 0.00361 264.37683 281.30441
308.0 0.003247 264.30072 285.58347
279.0 0.00358 264.22379 292.74887
306.0 0.003268 264.14630 304.83401
299.0 0.003344 264.06839 324.23813
372.0 0.002688 263.98987 353.67764
407.0 0.002457 263.91080 394.99716
431.0 0.002320 263.83099 448.13425
481.0 0.002079 263.75089 509.97327
620.0 0.001613 263.67017 573.54340
614.0 0.001629 263.58911 630.21582
612.0 0.001634 263.50751 675.13647
708.0 0.001412 263.42542 706.71228
733.0 0.001364 263.34286 720.28973
708.0 0.001412 263.26004 711.04047
664.0 0.001506 263.17676 681.51300
640.0 0.001563 263.09299 640.14331
569.0 0.001757 263.00894 594.42474
561.0 0.001783 262.92456 550.24084
520.0 0.001923 262.83987 510.42789
466.0 0.002146 262.75479 473.34058
454.0 0.002203 262.66943 436.85077
381.0 0.002625 262.58365 401.55551
358.0 0.002793 262.49783 369.41232
341.0 0.002933 262.41174 341.87708
307.0 0.003257 262.32532 319.80243
274.0 0.00365 262.23871 303.30902
285.0 0.00351 262.15198 291.74451
297.0 0.003367 262.06500 284.01675
276.0 0.00362 261.97787 278.99078
270.0 0.00370 261.89063 275.71994
245.0 0.00408 261.80325 273.52478
307.0 0.003257 261.71579 271.96945
271.0 0.00369 261.62814 270.79593
293.0 0.003413 261.54053 269.86209
272.0 0.00368 261.45279 269.08997
267.0 0.00375 261.36514 268.43686
237.0 0.00422 261.27737 267.87723
263.0 0.00380 261.18954 267.39435
269.0 0.00372 261.10187 266.97638
268.0 0.00373 261.01416 266.61407
263.0 0.00380 260.92657 266.30078
265.0 0.00377 260.83893 266.44040
282.0 0.00355 260.75140 266.22174
243.0 0.00412 260.66400 266.04056
249.0 0.00402 260.57687 265.89505
286.0 0.003497 260.48975 265.78433
268.0 0.00373 260.40277 265.70798
269.0 0.00372 260.31598 265.70392
309.0 0.003236 260.22928 265.85602
268.0 0.00373 260.14294 265.89600
278.0 0.00360 260.05670 265.97906
278.0 0.00360 259.97086 266.10999
263.0 0.00380 259.88519 266.29523
274.0 0.00365 259.79984 266.54343
273.0 0.00366 259.71472 266.87982
259.0 0.00386 259.62994 267.29138
255.0 0.00392 259.54550 267.81232
244.0 0.00410 259.46143 268.47174
291.0 0.003436 259.37756 269.31796
281.0 0.00356 259.29425 270.44196
286.0 0.003497 259.21130 272.03583
256.0 0.00391 259.12863 274.50162
279.0 0.00358 259.04648 278.65125
326.0 0.003067 258.96475 285.93985
342.0 0.002924 258.88348 298.62115
313.0 0.003195 258.80283 319.54987
364.0 0.002747 258.72247 351.35178
394.0 0.002538 258.64261 394.97427
470.0 0.002128 258.56342 448.00183
512.0 0.001953 258.48462 503.44675
481.0 0.002079 258.40646 549.46698
532.0 0.001880 258.32870 572.22443
607.0 0.001647 258.25165 565.02917
571.0 0.001751 258.17523 536.02246
541.0 0.001848 258.09946 499.71066
520.0 0.001923 258.02423 467.13721
433.0 0.002309 257.94962 443.23593
410.0 0.002439 257.87567 425.45239
376.0 0.002660 257.80234 407.68964
351.0 0.002849 257.72977 386.07098
370.0 0.002703 257.65781 361.34976
394.0 0.002538 257.58661 336.81406
330.0 0.003030 257.51611 315.20905
311.0 0.003215 257.44641 298.30356
307.0 0.003257 257.37738 286.25137
272.0 0.00368 257.30920 278.34973
264.0 0.00379 257.24161 273.51825
280.0 0.00357 257.17490 270.66013
307.0 0.003257 257.10889 268.96301
259.0 0.00386 257.04391 267.91632
296.0 0.003378 256.97949 267.24078
263.0 0.00380 256.91614 266.79752
233.0 0.00429 256.85336 266.51971
276.0 0.00362 256.79166 266.37473
256.0 0.00391 256.73074 266.34619
248.0 0.00403 256.67072 266.42792
261.0 0.00383 256.61142 266.62152
289.0 0.003460 256.55319 266.93408
301.0 0.003322 256.49582 267.37646
300.0 0.003333 256.43933 267.96402
274.0 0.00365 256.38379 268.71762
275.0 0.00364 256.32916 269.66638
280.0 0.00357 256.27551 270.85257
294.0 0.003401 256.22269 272.34250
304.0 0.003289 256.17084 274.25146
303.0 0.003300 256.12015 276.80771
291.0 0.003436 256.07022 280.48825
299.0 0.003344 256.02139 286.28152
307.0 0.003257 255.97345 296.08029
308.0 0.003247 255.92654 313.10126
349.0 0.002865 255.88063 342.00000
366.0 0.002732 255.83574 388.15372
472.0 0.002119 255.79182 455.77722
567.0 0.001764 255.74901 545.04004
662.0 0.001511 255.70729 649.26343
741.0 0.001350 255.66638 753.05853
736.0 0.001359 255.62665 832.73761
789.0 0.001267 255.58786 864.59631
875.0 0.001143 255.55032 843.60126
867.0 0.001153 255.51363 789.75848
744.0 0.001344 255.47812 730.05072
640.0 0.001563 255.44357 681.44611
567.0 0.001764 255.41020 647.58203
537.0 0.001862 255.37778 619.98450
524.0 0.001908 255.34656 585.90863
548.0 0.001825 255.31625 539.90875
510.0 0.001961 255.28725 486.96463
461.0 0.002169 255.25920 435.33820
361.0 0.002770 255.23222 391.12738
321.0 0.003115 255.20636 356.74008
309.0 0.003236 255.18166 331.50266
318.0 0.003145 255.15785 313.38364
301.0 0.003322 255.13524 300.25040
281.0 0.00356 255.11371 290.64246
262.0 0.00382 255.09332 283.52478
308.0 0.003247 255.07393 278.19727
292.0 0.003425 255.05573 274.21429
288.0 0.003472 255.03857 271.20169
298.0 0.003356 255.02260 268.94818
275.0 0.00364 255.00761 267.26920
276.0 0.00362 254.99377 265.97641
284.0 0.00352 254.98099 264.95282
253.0 0.00395 254.96927 264.09772
282.0 0.00355 254.95866 263.34256
268.0 0.00373 254.94919 262.65759
262.0 0.00382 254.94083 262.04114
278.0 0.00360 254.93347 261.49622
269.0 0.00372 254.92719 260.81677
249.0 0.00402 254.92204 260.41605
275.0 0.00364 254.91795 260.07587
255.0 0.00392 254.91483 259.78809
257.0 0.00389 254.91289 259.54398
274.0 0.00365 254.91197 259.33588
249.0 0.00402 254.91211 259.07837
253.0 0.00395 254.91330 258.92770
254.0 0.00394 254.91563 258.79904
265.0 0.00377 254.91887 258.69019
260.0 0.00385 254.92323 258.59897
253.0 0.00395 254.92862 258.52444
262.0 0.00382 254.93492 258.46558
261.0 0.00383 254.94235 258.42142
264.0 0.00379 254.95082 258.39175
271.0 0.00369 254.96014 258.37604
261.0 0.00383 254.97070 258.37451
279.0 0.00358 254.98207 258.38696
265.0 0.00377 254.99440 258.41360
256.0 0.00391 255.00783 258.45505
270.0 0.00370 255.02222 258.70679
262.0 0.00382 255.03755 258.78513
271.0 0.00369 255.05377 258.88086
263.0 0.00380 255.07101 258.99579
260.0 0.00385 255.08916 259.13135
250.0 0.00400 255.10818 259.28992
286.0 0.003497 255.12825 259.47427
282.0 0.00355 255.14922 259.76089
270.0 0.00370 255.17099 260.00958
251.0 0.00398 255.19376 260.29666
293.0 0.003413 255.21727 260.62885
261.0 0.00383 255.24162 261.01385
279.0 0.00358 255.26707 261.46243
274.0 0.00365 255.29315 261.98795
280.0 0.00357 255.32021 262.60886
267.0 0.00375 255.34801 263.35193
284.0 0.00352 255.37660 264.26248
283.0 0.00353 255.40594 265.43680
261.0 0.00383 255.43620 267.03305
284.0 0.00352 255.46722 269.41901
273.0 0.00366 255.49904 273.27292
296.0 0.003378 255.53151 279.74048
273.0 0.00366 255.56485 290.48993
305.0 0.003279 255.59865 307.49954
313.0 0.003195 255.63338 332.43295
365.0 0.002740 255.66884 365.23727
395.0 0.002532 255.70496 404.78949
414.0 0.002415 255.74167 445.66479
407.0 0.002457 255.77908 479.75919
505.0 0.001980 255.81723 497.99173
459.0 0.002179 255.85590 496.67035
478.0 0.002092 255.89517 482.02707
496.0 0.002016 255.93506 465.03848
454.0 0.002203 255.97565 454.98236
440.0 0.002273 256.01669 455.23273
412.0 0.002427 256.05835 463.62131
465.0 0.002151 256.10052 473.24194
441.0 0.002268 256.14325 475.95737
447.0 0.002237 256.18646 467.39755
461.0 0.002169 256.23022 448.88486
435.0 0.002299 256.27435 424.79385
398.0 0.002513 256.31921 399.60696
412.0 0.002427 256.36423 377.07700
348.0 0.002874 256.40979 359.21277
356.0 0.002809 256.45575 345.65204
293.0 0.003413 256.50226 334.55927
327.0 0.003058 256.54889 324.32135
318.0 0.003145 256.59616 314.22693
294.0 0.003401 256.64355 304.18680
287.0 0.003484 256.69135 294.64612
261.0 0.00383 256.73956 286.27921
286.0 0.003497 256.78793 279.53601
269.0 0.00372 256.83664 274.50507
261.0 0.00383 256.88568 271.00635
245.0 0.00408 256.93500 268.72656
260.0 0.00385 256.98444 267.32886
331.0 0.003021 257.03415 266.52780
246.0 0.00407 257.08401 266.11716
275.0 0.00364 257.13406 265.96918
267.0 0.00375 257.18439 266.01514
275.0 0.00364 257.23471 266.22681
246.0 0.00407 257.28525 266.63159
243.0 0.00412 257.33588 267.19620
280.0 0.00357 257.38654 268.00739
277.0 0.00361 257.43732 269.43182
277.0 0.00361 257.48819 271.27344
278.0 0.00360 257.53915 274.30228
280.0 0.00357 257.59003 279.48288
276.0 0.00362 257.64096 288.32932
282.0 0.00355 257.69183 302.84595
288.0 0.003472 257.74271 325.05917
335.0 0.002985 257.79352 356.21146
402.0 0.002488 257.84427 395.71371
428.0 0.002336 257.89484 439.78949
482.0 0.002075 257.94547 481.41544
504.0 0.001984 257.99594 510.52789
517.0 0.001934 258.04617 518.19086
495.0 0.002020 258.09628 503.95029
474.0 0.002110 258.14627 476.73450
483.0 0.002070 258.19611 447.42322
431.0 0.002320 258.24554 423.21603
377.0 0.002653 258.29486 406.32288
375.0 0.002667 258.34390 394.43808
349.0 0.002865 258.39267 382.74081
371.0 0.002695 258.44119 367.71228
402.0 0.002488 258.48941 349.64236
346.0 0.002890 258.53732 331.09836
330.0 0.003030 258.58484 314.57483
306.0 0.003268 258.63202 301.59900
280.0 0.00357 258.67880 292.63403
310.0 0.003226 258.72528 287.19409
297.0 0.003367 258.77127 284.17526
282.0 0.00355 258.81686 282.26538
247.0 0.00405 258.86200 280.44067
257.0 0.00389 258.90662 278.36581
268.0 0.00373 258.95084 276.21799
250.0 0.00400 258.99457 274.32407
257.0 0.00389 259.03763 272.88068
279.0 0.00358 259.08029 271.89783
270.0 0.00370 259.12250 271.22501
277.0 0.00361 259.16397 270.70428
301.0 0.003322 259.20493 270.19226
298.0 0.003356 259.24524 269.84625
261.0 0.00383 259.28503 269.86255
293.0 0.003413 259.32407 270.36807
284.0 0.00352 259.36258 271.18555
271.0 0.00369 259.40045 272.47549
230.0 0.00435 259.43747 273.71338
271.0 0.00369 259.47385 274.46136
299.0 0.003344 259.50964 274.37262
280.0 0.00357 259.54459 273.55423
261.0 0.00383 259.57883 272.46674
282.0 0.00355 259.61227 271.32004
289.0 0.003460 259.64496 270.46072
278.0 0.00360 259.67688 270.25208
258.0 0.00388 259.70804 270.12631
266.0 0.00376 259.73831 269.82272
270.0 0.00370 259.76773 269.43634
260.0 0.00385 259.79639 268.97662
282.0 0.00355 259.82410 268.57837
256.0 0.00391 259.85098 268.26923
256.0 0.00391 259.87698 268.28430
297.0 0.003367 259.90198 268.43613
279.0 0.00358 259.92627 268.86560
265.0 0.00377 259.94940 269.48691
274.0 0.00365 259.97165 270.35278
292.0 0.003425 259.99304 271.51575
259.0 0.00386 260.01331 273.10764
287.0 0.003484 260.03275 275.40656
275.0 0.00364 260.05103 278.94089
293.0 0.003413 260.06842 284.63034
265.0 0.00377 260.08472 293.91348
299.0 0.003344 260.10004 308.76721
329.0 0.003040 260.11438 331.45737
368.0 0.002717 260.12750 363.87158
414.0 0.002415 260.13965 406.46179
471.0 0.002123 260.15073 457.01730
520.0 0.001923 260.16061 509.96161
592.0 0.001689 260.16953 556.63623
579.0 0.001727 260.17728 586.52557
569.0 0.001757 260.18393 591.18463
606.0 0.001650 260.18942 571.19562
583.0 0.001715 260.19373 537.09650
574.0 0.001742 260.19687 501.13550
509.0 0.001965 260.19891 471.18634
444.0 0.002252 260.19986 449.53629
405.0 0.002469 260.19955 433.80066
419.0 0.002387 260.19797 418.82654
428.0 0.002336 260.19537 400.26279
388.0 0.002577 260.19138 377.71469
375.0 0.002667 260.18637 353.86331
342.0 0.002924 260.18005 331.46228
344.0 0.002907 260.17245 312.85962
293.0 0.003413 260.16370 298.66586
286.0 0.003497 260.15369 288.74918
285.0 0.00351 260.14233 282.38055
292.0 0.003425 260.12979 278.63974
284.0 0.00352 260.11600 276.70074
286.0 0.003497 260.10095 275.95795
282.0 0.00355 260.08453 275.93942
288.0 0.003472 260.06696 276.53162
273.0 0.00366 260.04810 277.46506
247.0 0.00405 260.02789 278.57690
290.0 0.003448 260.00638 279.77554
258.0 0.00388 259.98358 281.14236
289.0 0.003460 259.95947 282.90561
257.0 0.00389 259.93411 285.25772
285.0 0.00351 259.90747 288.25974
283.0 0.00353 259.87933 291.69608
295.0 0.003390 259.85007 295.40359
284.0 0.00352 259.81949 299.39676
300.0 0.003333 259.78741 304.14111
315.0 0.003175 259.75409 310.20483
303.0 0.003300 259.71945 317.68875
305.0 0.003279 259.68350 325.84061
276.0 0.00362 259.64615 333.10516
328.0 0.003049 259.60754 337.57300
332.0 0.003012 259.56760 338.48584
334.0 0.002994 259.52634 337.37851
340.0 0.002941 259.48370 337.41049
343.0 0.002915 259.43973 342.13046
357.0 0.002801 259.39441 354.90833
355.0 0.002817 259.34784 378.76547
403.0 0.002481 259.29980 416.01947
435.0 0.002299 259.25052 467.78287
491.0 0.002037 259.19983 532.89764
618.0 0.001618 259.14783 607.15375
709.0 0.001410 259.09454 682.28583
758.0 0.001319 259.04001 746.75446
743.0 0.001346 258.98404 787.41180
862.0 0.001160 258.92676 794.62103
863.0 0.001159 258.86810 768.93945
811.0 0.001233 258.80826 721.35449
763.0 0.001311 258.74692 666.94312
655.0 0.001527 258.68451 617.71008
546.0 0.001832 258.62054 578.74896
508.0 0.001969 258.55539 548.62030
521.0 0.001919 258.48901 521.66846
526.0 0.001901 258.42114 492.19449
478.0 0.002092 258.35217 458.10507
479.0 0.002088 258.28177 421.20239
395.0 0.002532 258.21011 385.23846
379.0 0.002639 258.13730 353.55392
324.0 0.003086 258.06311 328.01617
291.0 0.003436 257.98767 309.02426
298.0 0.003356 257.91098 295.92017
320.0 0.003125 257.83301 287.54123
259.0 0.00386 257.75378 282.71332
286.0 0.003497 257.67337 280.55164
281.0 0.00356 257.59177 280.53467
286.0 0.003497 257.50879 282.39465
247.0 0.00405 257.42468 285.91061
289.0 0.003460 257.33939 290.68918
276.0 0.00362 257.25287 295.96777
304.0 0.003289 257.16516 300.64471
278.0 0.00360 257.07623 303.01782
290.0 0.003448 256.98621 302.56357
339.0 0.002950 256.89496 299.33777
320.0 0.003125 256.80252 294.67575
280.0 0.00357 256.70898 290.01041
275.0 0.00364 256.61429 286.21857
286.0 0.003497 256.51852 283.57062
273.0 0.00366 256.42151 281.72748
260.0 0.00385 256.32339 279.92035
269.0 0.00372 256.22424 277.75784
278.0 0.00360 256.12405 275.07727
268.0 0.00373 256.02271 272.17856
281.0 0.00356 255.92030 269.42630
276.0 0.00362 255.81685 267.07523
276.0 0.00362 255.71230 265.25250
266.0 0.00376 255.60680 263.97348
281.0 0.00356 255.50021 263.18811
258.0 0.00388 255.39265 262.83560
241.0 0.00415 255.28415 262.90033
276.0 0.00362 255.17455 263.44836
252.0 0.00397 255.06403 264.64124
267.0 0.00375 254.95253 266.71326
255.0 0.00392 254.84010 269.90530
272.0 0.00368 254.72668 274.35196
285.0 0.00351 254.61237 279.96811
273.0 0.00366 254.49715 286.31476
322.0 0.003106 254.38107 292.55032
315.0 0.003175 254.26408 297.48355
323.0 0.003096 254.14624 300.02933
323.0 0.003096 254.02751 300.06757
310.0 0.003226 253.90797 298.60333
336.0 0.002976 253.78751 296.92432
303.0 0.003300 253.66641 295.78400
272.0 0.00368 253.54436 295.29742
297.0 0.003367 253.42154 295.20123
297.0 0.003367 253.29794 295.25681
270.0 0.00370 253.17369 295.54495
288.0 0.003472 253.04860 296.60504
267.0 0.00375 252.92284 299.52808
328.0 0.003049 252.79631 305.28967
316.0 0.003165 252.66914 314.55328
345.0 0.002899 252.54124 327.27405
330.0 0.003030 252.41273 342.47684
358.0 0.002793 252.28355 358.20700
338.0 0.002959 252.15373 371.68002
368.0 0.002717 252.02330 380.49823
416.0 0.002404 251.89223 384.69717
416.0 0.002404 251.76065 387.03888
398.0 0.002513 251.62840 390.70142
417.0 0.002398 251.49564 396.65912
380.0 0.002632 251.36230 403.03488
362.0 0.002762 251.22858 406.32455
418.0 0.002392 251.09418 402.88773
405.0 0.002469 250.95938 391.78766
401.0 0.002494 250.82402 375.72934
386.0 0.002591 250.68828 358.51392
325.0 0.003077 250.55203 343.32782
320.0 0.003125 250.41548 331.32278
313.0 0.003195 250.27850 322.31726
322.0 0.003106 250.14096 314.36285
311.0 0.003215 250.00319 306.18329
303.0 0.003300 249.86499 297.34583
289.0 0.003460 249.72647 288.46481
268.0 0.00373 249.58760 280.27493
267.0 0.00375 249.44849 273.33539
266.0 0.00376 249.30902 267.84210
257.0 0.00389 249.16933 263.74600
260.0 0.00385 249.02937 260.75293
261.0 0.00383 248.88905 258.67090
270.0 0.00370 248.74858 257.32089
241.0 0.00415 248.60794 256.61191
252.0 0.00397 248.46704 256.51550
265.0 0.00377 248.32608 257.03278
266.0 0.00376 248.18477 258.13889
250.0 0.00400 248.04337 259.72321
284.0 0.00352 247.90184 261.54852
236.0 0.00424 247.76033 263.19647
264.0 0.00379 247.61859 264.22784
265.0 0.00377 247.47681 264.20248
246.0 0.00407 247.33498 263.12079
287.0 0.003484 247.19302 261.40891
246.0 0.00407 247.05115 259.58765
269.0 0.00372 246.90921 258.02402
268.0 0.00373 246.76721 256.86832
273.0 0.00366 246.62529 256.05450
260.0 0.00385 246.48332 255.39677
278.0 0.00360 246.34151 254.63959
267.0 0.00375 246.19975 253.67108
252.0 0.00397 246.05798 252.55319
279.0 0.00358 245.91640 251.41682
286.0 0.003497 245.77486 250.37347
234.0 0.00427 245.63351 249.49048
251.0 0.00398 245.49228 248.79016
241.0 0.00415 245.35114 248.26065
219.0 0.00457 245.21027 247.87000
240.0 0.00417 245.06949 247.58054
238.0 0.00420 244.92899 247.35992
250.0 0.00400 244.78871 247.28389
229.0 0.00437 244.64859 247.14130
252.0 0.00397 244.50873 247.02525
254.0 0.00394 244.36916 246.92653
239.0 0.00418 244.22986 246.84309
253.0 0.00395 244.09093 246.77734
237.0 0.00422 243.95213 246.69823
257.0 0.00389 243.81374 246.67102
236.0 0.00424 243.67569 246.71672
245.0 0.00408 243.53796 246.74193
233.0 0.00429 243.40068 246.78183
243.0 0.00412 243.26366 246.84819
254.0 0.00394 243.12700 246.93762
264.0 0.00379 242.99075 247.07346
256.0 0.00391 242.85503 247.25081
244.0 0.00410 242.71965 247.50928
276.0 0.00362 242.58467 247.86530
241.0 0.00415 242.45018 248.36574
259.0 0.00386 242.31619 249.10989
256.0 0.00391 242.18268 250.24744
250.0 0.00400 242.04964 252.10141
263.0 0.00380 241.91695 254.84650
254.0 0.00394 241.78491 258.97534
245.0 0.00408 241.65334 264.89462
292.0 0.003425 241.52238 273.00446
298.0 0.003356 241.39192 283.44125
310.0 0.003226 241.26204 296.08853
292.0 0.003425 241.13264 310.28925
316.0 0.003165 241.00388 325.12936
336.0 0.002976 240.87573 339.76056
352.0 0.002841 240.74814 354.10828
361.0 0.002770 240.62111 368.45926
321.0 0.003115 240.49478 382.09219
393.0 0.002545 240.36902 393.62939
426.0 0.002347 240.24391 402.34772
376.0 0.002660 240.11949 407.73746
405.0 0.002469 239.99565 408.36035
383.0 0.002611 239.87248 402.47797
366.0 0.002732 239.75000 390.38339
389.0 0.002571 239.62822 374.92975
333.0 0.003003 239.50710 359.08105
298.0 0.003356 239.38667 344.69110
329.0 0.003040 239.26698 332.48126
322.0 0.003106 239.14793 322.61279
255.0 0.00392 239.02968 314.31021
304.0 0.003289 238.91217 306.18054
305.0 0.003279 238.79536 297.24796
257.0 0.00389 238.67923 287.64114
261.0 0.00383 238.56387 278.17322
284.0 0.00352 238.44923 269.66360
269.0 0.00372 238.33549 262.64621
257.0 0.00389 238.22237 257.25336
253.0 0.00395 238.11003 253.39432
262.0 0.00382 237.99846 250.80940
234.0 0.00427 237.88785 249.04845
264.0 0.00379 237.77788 247.80193
244.0 0.00410 237.66867 246.82893
284.0 0.00352 237.56035 246.05121
277.0 0.00361 237.45270 245.42575
229.0 0.00437 237.34595 244.95155
247.0 0.00405 237.24001 244.63580
220.0 0.00455 237.13477 244.48868
251.0 0.00398 237.03043 244.54173
252.0 0.00397 236.92693 244.80807
236.0 0.00424 236.82420 245.38986
274.0 0.00365 236.72235 246.48157
244.0 0.00410 236.62123 248.40125
232.0 0.00431 236.52100 251.63763
257.0 0.00389 236.42159 256.82349
265.0 0.00377 236.32309 264.61923
269.0 0.00372 236.22530 275.49210
287.0 0.003484 236.12839 289.41995
298.0 0.003356 236.03232 305.59250
300.0 0.003333 235.93704 322.20892
310.0 0.003226 235.84262 336.42291
348.0 0.002874 235.74908 344.89496
330.0 0.003030 235.65634 345.60593
377.0 0.002653 235.56445 339.74249
361.0 0.002770 235.47337 330.85605
326.0 0.003067 235.38312 322.52341
325.0 0.003077 235.29381 316.90643
341.0 0.002933 235.20518 314.46503
304.0 0.003289 235.11748 314.04495
298.0 0.003356 235.03059 313.31604
325.0 0.003077 234.94455 309.94559
344.0 0.002907 234.85931 303.16104
292.0 0.003425 234.77486 294.03717
314.0 0.003185 234.69135 284.36401
297.0 0.003367 234.60858 275.60062
285.0 0.00351 234.52663 268.56363
243.0 0.00412 234.44547 263.42615
257.0 0.00389 234.36519 259.84790
265.0 0.00377 234.28574 257.23248
283.0 0.00353 234.20706 255.07143
267.0 0.00375 234.12910 253.15845
282.0 0.00355 234.05200 251.53093
254.0 0.00394 233.97575 250.32675
254.0 0.00394 233.90030 249.72523
264.0 0.00379 233.82555 249.93068
250.0 0.00400 233.75165 251.25899
240.0 0.00417 233.67844 254.18286
250.0 0.00400 233.60606 259.39182
283.0 0.00353 233.53450 267.77295
245.0 0.00408 233.46359 280.27960
304.0 0.003289 233.39360 297.62646
327.0 0.003058 233.32420 320.10641
376.0 0.002660 233.25566 346.97327
398.0 0.002513 233.18781 376.19791
427.0 0.002342 233.12067 404.22775
421.0 0.002375 233.05428 427.06714
481.0 0.002079 232.98859 442.10571
493.0 0.002028 232.92360 449.37967
539.0 0.001855 232.85936 449.67755
420.0 0.002381 232.79584 443.88751
440.0 0.002273 232.73296 433.17654
407.0 0.002457 232.67079 419.44458
403.0 0.002481 232.60931 404.31473
370.0 0.002703 232.54851 388.90878
384.0 0.002604 232.48831 373.81595
369.0 0.002710 232.42883 359.59494
366.0 0.002732 232.36995 346.62454
328.0 0.003049 232.31178 334.92664
307.0 0.003257 232.25420 324.38623
357.0 0.002801 232.19720 315.44879
332.0 0.003012 232.14084 308.94513
280.0 0.00357 232.08508 305.79654
303.0 0.003300 232.02997 306.64874
329.0 0.003040 231.97539 311.40143
330.0 0.003030 231.92134 318.91815
325.0 0.003077 231.86801 326.97537
322.0 0.003106 231.81511 332.55219
368.0 0.002717 231.76279 333.02991
326.0 0.003067 231.71103 327.85077
317.0 0.003155 231.65976 319.20218
319.0 0.003135 231.60905 310.22659
297.0 0.003367 231.55887 303.51401
242.0 0.00413 231.50916 300.54913
324.0 0.003086 231.45993 301.57431
333.0 0.003003 231.41121 305.60303
301.0 0.003322 231.36298 310.70590
309.0 0.003236 231.31520 314.74979
350.0 0.002857 231.26781 316.01447
299.0 0.003344 231.22092 313.46802
292.0 0.003425 231.17448 306.94656
290.0 0.003448 231.12840 297.63229
299.0 0.003344 231.08278 287.53726
283.0 0.00353 231.03752 278.44864
276.0 0.00362 230.99272 271.36234
270.0 0.00370 230.94821 266.51895
238.0 0.00420 230.90408 263.48798
256.0 0.00391 230.86040 261.36841
260.0 0.00385 230.81697 259.07385
274.0 0.00365 230.77397 256.26718
261.0 0.00383 230.73122 252.81189
291.0 0.003436 230.68878 249.18150
287.0 0.003484 230.64670 245.81348
257.0 0.00389 230.60486 243.01855
255.0 0.00392 230.56332 240.99922
241.0 0.00415 230.52203 239.84758
240.0 0.00417 230.48109 239.57953
245.0 0.00408 230.44035 240.15582
226.0 0.00442 230.39981 241.49518
249.0 0.00402 230.35951 243.38504
251.0 0.00398 230.31947 245.56529
245.0 0.00408 230.27960 247.62587
218.0 0.00459 230.23987 249.04736
251.0 0.00398 230.20042 249.41388
226.0 0.00442 230.16116 248.54614
236.0 0.00424 230.12206 246.86140
250.0 0.00400 230.08299 244.91074
211.0 0.00474 230.04414 243.14151
244.0 0.00410 230.00546 241.79886
230.0 0.00435 229.96687 240.92380
230.0 0.00435 229.92838 240.37732
238.0 0.00420 229.89003 239.90686
230.0 0.00435 229.85176 239.29724
234.0 0.00427 229.81349 238.45023
241.0 0.00415 229.77536 237.49532
247.0 0.00405 229.73734 236.61102
213.0 0.00469 229.69933 235.96210
255.0 0.00392 229.66136 235.68376
222.0 0.00450 229.62335 235.81122
238.0 0.00420 229.58539 236.32500
246.0 0.00407 229.54745 237.21939
236.0 0.00424 229.50952 238.29625
243.0 0.00412 229.47165 239.37297
239.0 0.00418 229.43367 240.05322
264.0 0.00379 229.39568 240.15202
265.0 0.00377 229.35760 239.64667
220.0 0.00455 229.31956 238.75392
243.0 0.00412 229.28146 237.74924
254.0 0.00394 229.24326 236.86052
256.0 0.00391 229.20500 236.20468
243.0 0.00412 229.16664 235.79182
232.0 0.00431 229.12817 235.56142
233.0 0.00429 229.08961 235.33614
243.0 0.00412 229.05104 235.09958
219.0 0.00457 229.01225 234.64938
242.0 0.00413 228.97336 234.03471
238.0 0.00420 228.93433 233.50589
237.0 0.00422 228.89519 233.03804
242.0 0.00413 228.85582 232.66925
227.0 0.00441 228.81631 232.35265
249.0 0.00402 228.77670 232.21239
236.0 0.00424 228.73692 232.14270
217.0 0.00461 228.69695 232.22252
229.0 0.00437 228.65666 232.35005
240.0 0.00417 228.61629 232.52916
204.0 0.00490 228.57578 232.84895
222.0 0.00450 228.53496 233.33234
265.0 0.00377 228.49399 234.06018
206.0 0.00485 228.45274 235.25421
248.0 0.00403 228.41129 237.14333
266.0 0.00376 228.36961 240.03806
246.0 0.00407 228.32770 244.29662
255.0 0.00392 228.28555 250.15723
253.0 0.00395 228.24307 257.64514
288.0 0.003472 228.20042 266.41797
297.0 0.003367 228.15753 275.65775
291.0 0.003436 228.11424 284.01410
287.0 0.003484 228.07083 289.70227
262.0 0.00382 228.02705 291.47253
311.0 0.003215 227.98305 289.25504
326.0 0.003067 227.93874 284.51901
301.0 0.003322 227.89412 279.17252
263.0 0.00380 227.84918 274.72928
274.0 0.00365 227.80409 272.00375
272.0 0.00368 227.75856 271.10715
264.0 0.00379 227.71271 271.47440
281.0 0.00356 227.66666 272.20929
281.0 0.00356 227.62022 272.51080
308.0 0.003247 227.57350 272.25491
280.0 0.00357 227.52643 272.08823
257.0 0.00389 227.47906 272.69775
259.0 0.00386 227.43137 274.61539
265.0 0.00377 227.38339 278.10516
247.0 0.00405 227.33504 283.30130
277.0 0.00361 227.28636 290.24786
306.0 0.003268 227.23734 298.64682
295.0 0.003390 227.18797 307.54129
290.0 0.003448 227.13834 315.29910
323.0 0.003096 227.08838 319.70114
306.0 0.003268 227.03804 319.22226
324.0 0.003086 226.98737 314.01093
290.0 0.003448 226.93640 305.91763
330.0 0.003030 226.88506 297.30832
299.0 0.003344 226.83337 290.16162
279.0 0.00358 226.78143 285.74045
296.0 0.003378 226.72896 284.49048
270.0 0.00370 226.67635 286.10379
279.0 0.00358 226.62335 289.61514
301.0 0.003322 226.57005 293.98111
302.0 0.003311 226.51634 298.41565
310.0 0.003226 226.46231 302.34268
269.0 0.00372 226.40797 304.91086
269.0 0.00372 226.35333 304.87814
295.0 0.003390 226.29828 301.39249
293.0 0.003413 226.24303 294.87943
282.0 0.00355 226.18732 286.94534
271.0 0.00369 226.13135 279.36035
305.0 0.003279 226.07513 273.39917
255.0 0.00392 226.01849 269.70712
267.0 0.00375 225.96161 268.35385
261.0 0.00383 225.90439 268.88110
274.0 0.00365 225.84685 270.57358
276.0 0.00362 225.78899 272.84363
266.0 0.00376 225.73093 275.61722
301.0 0.003322 225.67245 279.25574
292.0 0.003425 225.61380 284.07062
302.0 0.003311 225.55473 290.01569
327.0 0.003058 225.49548 296.74268
272.0 0.00368 225.43587 303.69632
309.0 0.003236 225.37602 309.90524
314.0 0.003185 225.31587 313.89478
292.0 0.003425 225.25552 314.30667
294.0 0.003401 225.19493 311.14215
289.0 0.003460 225.13397 306.09927
309.0 0.003236 225.07289 301.58148
291.0 0.003436 225.01149 299.63544
274.0 0.00365 224.94983 301.63181
294.0 0.003401 224.88797 308.15536
305.0 0.003279 224.82585 318.80692
349.0 0.002865 224.76361 332.03207
294.0 0.003401 224.70105 345.28793
352.0 0.002841 224.63835 355.53229
324.0 0.003086 224.57530 359.80261
293.0 0.003413 224.51222 356.24997
356.0 0.002809 224.44890 345.55597
347.0 0.002882 224.38533 330.79089
305.0 0.003279 224.32173 315.53073
285.0 0.00351 224.25780 302.40787
275.0 0.00364 224.19385 292.73550
268.0 0.00373 224.12968 286.57556
268.0 0.00373 224.06526 282.92441
226.0 0.00442 224.00085 280.07941
265.0 0.00377 223.93628 276.35593
243.0 0.00412 223.87160 270.97949
242.0 0.00413 223.80678 264.30460
245.0 0.00408 223.74184 257.20105
280.0 0.00357 223.67680 250.47745
247.0 0.00405 223.61166 244.68066
215.0 0.00465 223.54648 240.08990
229.0 0.00437 223.48116 236.76042
247.0 0.00405 223.41574 234.59041
256.0 0.00391 223.35033 233.40085
228.0 0.00439 223.28491 232.99913
238.0 0.00420 223.21933 233.21121
255.0 0.00392 223.15382 233.88362
220.0 0.00455 223.08824 234.86232
230.0 0.00435 223.02267 235.96938
243.0 0.00412 222.95711 237.09718
246.0 0.00407 222.89153 237.92659
231.0 0.00433 222.82590 238.47014
229.0 0.00437 222.76033 238.69402
236.0 0.00424 222.69479 238.55331
235.0 0.00426 222.62932 238.07573
226.0 0.00442 222.56386 237.43643
229.0 0.00437 222.49846 236.90211
253.0 0.00395 222.43309 236.75005
247.0 0.00405 222.36783 237.18427
229.0 0.00437 222.30270 238.58118
233.0 0.00429 222.23763 241.18037
228.0 0.00439 222.17261 245.43491
248.0 0.00403 222.10767 251.65257
282.0 0.00355 222.04295 259.97580
301.0 0.003322 221.97832 270.25827
277.0 0.00361 221.91383 281.82779
316.0 0.003165 221.84950 293.36554
326.0 0.003067 221.78531 302.87668
352.0 0.002841 221.72122 308.01309
356.0 0.002809 221.65742 307.35400
373.0 0.002681 221.59369 301.44321
310.0 0.003226 221.53023 292.63654
304.0 0.003289 221.46693 283.35529
321.0 0.003115 221.40388 275.40286
239.0 0.00418 221.34102 269.66470
259.0 0.00386 221.27837 266.16718
284.0 0.00352 221.21593 264.19293
261.0 0.00383 221.15375 262.53613
273.0 0.00366 221.09189 260.04468
266.0 0.00376 221.03024 256.23639
272.0 0.00368 220.96887 251.50803
252.0 0.00397 220.90776 246.55873
267.0 0.00375 220.84698 242.05630
220.0 0.00455 220.78644 238.47452
225.0 0.00444 220.72623 236.02234
223.0 0.00448 220.66626 234.83377
241.0 0.00415 220.60669 234.71851
231.0 0.00433 220.54745 235.38245
231.0 0.00433 220.48853 236.41307
231.0 0.00433 220.42998 237.32063
240.0 0.00417 220.37170 237.63065
253.0 0.00395 220.31380 237.08865
234.0 0.00427 220.25632 235.80957
254.0 0.00394 220.19916 234.14334
243.0 0.00412 220.14241 232.50476
260.0 0.00385 220.08606 231.14305
205.0 0.00488 220.03004 230.18483
245.0 0.00408 219.97452 229.60602
220.0 0.00455 219.91931 229.30525
232.0 0.00431 219.86450 229.06537
230.0 0.00435 219.81020 228.75580
233.0 0.00429 219.75626 228.17570
264.0 0.00379 219.70280 227.36844
240.0 0.00417 219.64975 226.52504
239.0 0.00418 219.59720 225.67049
231.0 0.00433 219.54500 224.87416
225.0 0.00444 219.49330 224.18607
239.0 0.00418 219.44202 223.64673
228.0 0.00439 219.39131 223.25459
222.0 0.00450 219.34097 222.99422
224.0 0.00446 219.29118 222.86334
213.0 0.00469 219.24179 222.76653
221.0 0.00452 219.19296 222.73874
219.0 0.00457 219.14462 222.73628
241.0 0.00415 219.09668 222.66293
230.0 0.00435 219.04932 222.69209
226.0 0.00442 219.00240 222.74438
213.0 0.00469 218.95610 222.82944
221.0 0.00452 218.91014 222.95566
221.0 0.00452 218.86482 223.19307
231.0 0.00433 218.81998 223.42522
220.0 0.00455 218.77568 223.72162
223.0 0.00448 218.73189 224.09431
219.0 0.00457 218.68858 224.53047
218.0 0.00459 218.64587 225.13109
281.0 0.00356 218.60359 225.92899
233.0 0.00429 218.56192 227.04424
227.0 0.00441 218.52075 228.68637
232.0 0.00431 218.48004 231.19644
228.0 0.00439 218.43997 235.10654
238.0 0.00420 218.40044 241.04515
243.0 0.00412 218.36142 249.80542
267.0 0.00375 218.32286 262.08792
306.0 0.003268 218.28491 278.26395
299.0 0.003344 218.24753 298.09030
298.0 0.003356 218.21062 320.43655
330.0 0.003030 218.17426 343.06796
345.0 0.002899 218.13847 362.60138
411.0 0.002433 218.10318 375.03641
404.0 0.002475 218.06847 377.62247
392.0 0.002551 218.03416 370.97391
376.0 0.002660 218.00055 358.83664
344.0 0.002907 217.96742 345.65924
330.0 0.003030 217.93475 334.87579
313.0 0.003195 217.90269 327.90793
300.0 0.003333 217.87115 324.76822
321.0 0.003115 217.84009 323.94354
300.0 0.003333 217.80949 323.04318
359.0 0.002786 217.77954 319.83652
328.0 0.003049 217.75009 313.19437
311.0 0.003215 217.72112 303.51541
284.0 0.00352 217.69261 292.23083
296.0 0.003378 217.66464 280.95038
225.0 0.00444 217.63721 270.93396
256.0 0.00391 217.61023 262.69846
243.0 0.00412 217.58371 256.26840
234.0 0.00427 217.55774 251.30986
280.0 0.00357 217.53224 247.15379
230.0 0.00435 217.50716 243.45663
214.0 0.00467 217.48262 240.16220
236.0 0.00424 217.45854 237.11746
232.0 0.00431 217.43494 234.33621
227.0 0.00441 217.41168 231.89621
210.0 0.00476 217.38901 229.86328
246.0 0.00407 217.36670 228.24234
238.0 0.00420 217.34492 226.97719
217.0 0.00461 217.32353 226.00655
225.0 0.00444 217.30252 225.16243
245.0 0.00408 217.28194 224.47694
226.0 0.00442 217.26175 223.90720
211.0 0.00474 217.24197 223.45021
210.0 0.00476 217.22264 223.10783
211.0 0.00474 217.20363 222.87392
228.0 0.00439 217.18506 222.75310
237.0 0.00422 217.16690 222.73999
242.0 0.00413 217.14893 222.84521
229.0 0.00437 217.13147 223.09164
235.0 0.00426 217.11426 223.55365
238.0 0.00420 217.09744 224.28236
223.0 0.00448 217.08096 225.44858
243.0 0.00412 217.06476 227.30994
235.0 0.00426 217.04890 230.15749
244.0 0.00410 217.03336 234.31989
237.0 0.00422 217.01805 240.07639
263.0 0.00380 217.00308 247.53769
254.0 0.00394 216.98837 256.52679
283.0 0.00353 216.97389 266.45752
283.0 0.00353 216.95966 276.26489
278.0 0.00360 216.94568 284.36130
308.0 0.003247 216.93198 288.98468
329.0 0.003040 216.91841 289.03207
328.0 0.003049 216.90509 284.90659
292.0 0.003425 216.89200 278.29553
308.0 0.003247 216.87907 271.13452
277.0 0.00361 216.86633 264.90811
258.0 0.00388 216.85367 260.46979
257.0 0.00389 216.84128 258.07443
249.0 0.00402 216.82898 257.48694
269.0 0.00372 216.81685 258.02896
237.0 0.00422 216.80481 259.02817
272.0 0.00368 216.79280 260.15707
281.0 0.00356 216.78102 261.71063
263.0 0.00380 216.76926 264.33585
286.0 0.003497 216.75755 268.53705
235.0 0.00426 216.74593 274.35565
273.0 0.00366 216.73428 281.22852
264.0 0.00379 216.72273 287.93787
273.0 0.00366 216.71120 292.74362
273.0 0.00366 216.69975 293.93430
280.0 0.00357 216.68820 290.92578
295.0 0.003390 216.67665 284.68793
296.0 0.003378 216.66504 277.03503
271.0 0.00369 216.65347 269.65906
250.0 0.00400 216.64183 263.69272
249.0 0.00402 216.63011 259.63574
253.0 0.00395 216.61835 257.40988
291.0 0.003436 216.60646 256.39453
266.0 0.00376 216.59445 255.76509
260.0 0.00385 216.58232 254.47467
252.0 0.00397 216.57010 252.23926
272.0 0.00368 216.55779 249.34741
220.0 0.00455 216.54524 246.46245
267.0 0.00375 216.53258 244.32193
231.0 0.00433 216.51974 243.63406
233.0 0.00429 216.50673 245.06325
231.0 0.00433 216.49338 249.21147
265.0 0.00377 216.47993 256.52179
229.0 0.00437 216.46628 267.21921
302.0 0.003311 216.45236 280.87418
299.0 0.003344 216.43819 296.98724
307.0 0.003257 216.42368 313.86057
313.0 0.003195 216.40903 329.17871
343.0 0.002915 216.39397 340.09753
346.0 0.002890 216.37866 344.34839
363.0 0.002755 216.36307 341.70792
381.0 0.002625 216.34708 334.14981
344.0 0.002907 216.33075 324.71671
306.0 0.003268 216.31416 316.24429
279.0 0.00358 216.29724 311.09229
285.0 0.00351 216.27986 310.48578
339.0 0.002950 216.26210 314.56213
333.0 0.003003 216.24394 322.27029
309.0 0.003236 216.22545 331.57379
344.0 0.002907 216.20651 339.96039
364.0 0.002747 216.18716 345.08084
361.0 0.002770 216.16731 345.07996
345.0 0.002899 216.14709 339.07361
321.0 0.003115 216.12637 327.85678
334.0 0.002994 216.10518 313.75009
306.0 0.003268 216.08356 299.39615
284.0 0.00352 216.06142 286.82535
260.0 0.00385 216.03874 277.16885
255.0 0.00392 216.01561 270.71634
262.0 0.00382 215.99196 267.04581
238.0 0.00420 215.96776 265.18857
276.0 0.00362 215.94304 263.90585
248.0 0.00403 215.91779 262.16702
306.0 0.003268 215.89200 259.62164
242.0 0.00413 215.86565 256.61288
262.0 0.00382 215.83865 253.73985
287.0 0.003484 215.81120 251.49741
267.0 0.00375 215.78305 250.15814
258.0 0.00388 215.75436 249.75941
226.0 0.00442 215.72504 250.11086
230.0 0.00435 215.69519 250.81213
236.0 0.00424 215.66469 251.28784
224.0 0.00446 215.63354 250.98621
246.0 0.00407 215.60179 249.44862
237.0 0.00422 215.56935 246.90695
253.0 0.00395 215.53636 243.88052
246.0 0.00407 215.50273 240.90588
234.0 0.00427 215.46835 238.36211
260.0 0.00385 215.43340 236.44261
184.0 0.00543 215.39774 235.17462
226.0 0.00442 215.36148 234.44843
210.0 0.00476 215.32452 234.05818
245.0 0.00408 215.28687 233.80266
228.0 0.00439 215.24857 233.53050
258.0 0.00388 215.20964 233.37654
229.0 0.00437 215.16998 233.54625
229.0 0.00437 215.12961 234.42473
227.0 0.00441 215.08856 236.09810
235.0 0.00426 215.04681 238.53813
218.0 0.00459 215.00444 241.50822
209.0 0.00478 214.96126 244.54808
250.0 0.00400 214.91750 246.99918
257.0 0.00389 214.87294 248.16805
235.0 0.00426 214.82768 247.68625
255.0 0.00392 214.78183 245.75644
235.0 0.00426 214.73520 243.08224
265.0 0.00377 214.68799 240.35052
245.0 0.00408 214.63989 238.10573
260.0 0.00385 214.59120 236.67787
268.0 0.00373 214.54184 236.20502
232.0 0.00431 214.49173 236.67998
202.0 0.00495 214.44099 238.01718
213.0 0.00469 214.38947 240.15353
255.0 0.00392 214.33736 243.15575
238.0 0.00420 214.28450 247.46742
243.0 0.00412 214.23097 253.55182
264.0 0.00379 214.17677 261.82608
283.0 0.00353 214.12181 272.22281
289.0 0.003460 214.06625 284.24359
307.0 0.003257 214.01006 296.72223
300.0 0.003333 213.95319 307.91449
284.0 0.00352 213.89563 315.72845
327.0 0.003058 213.83742 318.31091
336.0 0.002976 213.77846 315.00757
362.0 0.002762 213.71901 307.02979
293.0 0.003413 213.65892 296.70279
295.0 0.003390 213.59811 286.36078
277.0 0.00361 213.53671 277.60181
236.0 0.00424 213.47464 271.21182
278.0 0.00360 213.41211 267.22089
221.0 0.00452 213.34889 264.99829
246.0 0.00407 213.28508 263.48834
291.0 0.003436 213.22063 261.54913
278.0 0.00360 213.15569 258.34644
259.0 0.00386 213.09015 253.81314
241.0 0.00415 213.02411 248.46675
266.0 0.00376 212.95734 242.99455
215.0 0.00465 212.89024 237.97246
221.0 0.00452 212.82249 233.65683
232.0 0.00431 212.75426 230.44391
209.0 0.00478 212.68553 228.29858
255.0 0.00392 212.61626 227.23729
219.0 0.00457 212.54657 227.25412
202.0 0.00495 212.47638 228.29607
222.0 0.00450 212.40575 230.23329
244.0 0.00410 212.33464 232.86345
236.0 0.00424 212.26309 235.85127
240.0 0.00417 212.19112 238.71156
262.0 0.00382 212.11871 240.79022
250.0 0.00400 212.04594 241.56877
246.0 0.00407 211.97281 240.75310
241.0 0.00415 211.89928 238.54280
245.0 0.00408 211.82541 235.71077
242.0 0.00413 211.75110 232.80153
214.0 0.00467 211.67659 230.27208
233.0 0.00429 211.60170 228.36935
253.0 0.00395 211.52654 227.14006
259.0 0.00386 211.45107 226.45369
222.0 0.00450 211.37532 226.04037
238.0 0.00420 211.29941 225.56941
222.0 0.00450 211.22319 224.78680
246.0 0.00407 211.14677 223.60506
234.0 0.00427 211.07011 222.20103
235.0 0.00426 210.99332 220.72374
236.0 0.00424 210.91635 219.32707
219.0 0.00457 210.83920 218.11272
197.0 0.00508 210.76193 217.14119
220.0 0.00455 210.68452 216.42534
209.0 0.00478 210.60703 215.94867
227.0 0.00441 210.52948 215.68896
216.0 0.00463 210.45184 215.61632
214.0 0.00467 210.37419 215.69489
248.0 0.00403 210.29640 215.98572
205.0 0.00488 210.21864 216.52042
221.0 0.00452 210.14101 217.40967
230.0 0.00435 210.06328 218.83330
214.0 0.00467 209.98561 221.05199
219.0 0.00457 209.90797 224.38776
213.0 0.00469 209.83046 229.18521
209.0 0.00478 209.75305 235.73347
222.0 0.00450 209.67578 244.15327
256.0 0.00391 209.59859 254.27092
284.0 0.00352 209.52159 265.53644
266.0 0.00376 209.44475 276.88834
249.0 0.00402 209.36818 286.74976
256.0 0.00391 209.29175 293.21844
266.0 0.00376 209.21558 294.77206
316.0 0.003165 209.13963 291.25806
307.0 0.003257 209.06393 284.08344
281.0 0.00356 208.98860 275.32999
259.0 0.00386 208.91359 266.83698
265.0 0.00377 208.83881 259.80981
240.0 0.00417 208.76445 254.88692
268.0 0.00373 208.69043 252.01656
199.0 0.00503 208.61687 250.64752
233.0 0.00429 208.54364 249.83954
204.0 0.00490 208.47086 248.54784
274.0 0.00365 208.39857 246.07288
250.0 0.00400 208.32671 242.37392
221.0 0.00452 208.25529 237.90282
254.0 0.00394 208.18445 233.24548
239.0 0.00418 208.11406 228.87352
250.0 0.00400 208.04427 225.11389
200.0 0.00500 207.97504 222.14200
227.0 0.00441 207.90633 220.03162
225.0 0.00444 207.83833 218.72673
206.0 0.00485 207.77084 218.21838
214.0 0.00467 207.70407 218.50783
252.0 0.00397 207.63792 219.70062
221.0 0.00452 207.57245 221.84445
214.0 0.00467 207.50766 225.17059
230.0 0.00435 207.44356 229.81111
240.0 0.00417 207.38025 236.01462
243.0 0.00412 207.31764 243.70091
257.0 0.00389 207.25580 252.61885
297.0 0.003367 207.19472 262.15860
277.0 0.00361 207.13451 271.38467
309.0 0.003236 207.07501 279.19827
301.0 0.003322 207.01643 284.65140
306.0 0.003268 206.95862 287.15887
309.0 0.003236 206.90170 286.52112
313.0 0.003195 206.84572 283.20712
300.0 0.003333 206.79057 278.38538
293.0 0.003413 206.73633 273.60178
286.0 0.003497 206.68303 270.05646
280.0 0.00357 206.63071 268.43134
280.0 0.00357 206.57927 268.82642
280.0 0.00357 206.52885 270.83051
296.0 0.003378 206.47937 273.65848
288.0 0.003472 206.43092 276.30396
266.0 0.00376 206.38350 277.73444
293.0 0.003413 206.33707 277.24011
318.0 0.003145 206.29167 274.83157
249.0 0.00402 206.24731 271.14603
266.0 0.00376 206.20413 266.92120
249.0 0.00402 206.16194 262.57538
253.0 0.00395 206.12080 258.19049
262.0 0.00382 206.08084 253.76270
254.0 0.00394 206.04190 249.42154
249.0 0.00402 206.00414 245.36987
220.0 0.00455 205.96748 241.70634
242.0 0.00413 205.93201 238.37239
234.0 0.00427 205.89767 235.28098
213.0 0.00469 205.86444 232.45952
230.0 0.00435 205.83241 229.89430
237.0 0.00422 205.80156 227.61317
233.0 0.00429 205.77190 225.51422
210.0 0.00476 205.74342 223.45129
248.0 0.00403 205.71614 221.34262
220.0 0.00455 205.69009 219.22659
240.0 0.00417 205.66524 217.20720
225.0 0.00444 205.64163 215.37788
219.0 0.00457 205.61925 213.79030
243.0 0.00412 205.59808 212.43958
230.0 0.00435 205.57814 211.34959
202.0 0.00495 205.55942 210.49390
205.0 0.00488 205.54199 209.84209
212.0 0.00472 205.52580 209.32085
201.0 0.00498 205.51082 208.92223
205.0 0.00488 205.49712 208.61681
183.0 0.00546 205.48471 208.38080
202.0 0.00495 205.47353 208.19635
212.0 0.00472 205.46362 208.05067
200.0 0.00500 205.45496 207.92767
243.0 0.00412 205.44753 207.83463
217.0 0.00461 205.44141 207.76013
192.0 0.00521 205.43655 207.70078
198.0 0.00505 205.43291 207.66426
239.0 0.00418 205.43059 207.62946
215.0 0.00465 205.42944 207.60516
194.0 0.00515 205.42967 207.59050
233.0 0.00429 205.43105 207.58493
215.0 0.00465 205.43373 207.58838
199.0 0.00503 205.43764 207.60051
205.0 0.00488 205.44289 207.62137
221.0 0.00452 205.44913 207.65102
199.0 0.00503 205.45680 207.68964
204.0 0.00490 205.46568 207.73759
192.0 0.00521 205.47577 207.79512
238.0 0.00420 205.48708 207.86295
239.0 0.00418 205.49956 207.94150
224.0 0.00446 205.51326 208.03192
206.0 0.00485 205.52818 208.13504
212.0 0.00472 205.54431 208.25223
187.0 0.00535 205.56155 208.38492
214.0 0.00467 205.58003 208.53523
223.0 0.00448 205.59964 208.70589
212.0 0.00472 205.62044 208.90031
207.0 0.00483 205.64229 209.12357
195.0 0.00513 205.66534 209.38330
224.0 0.00446 205.68950 209.62970
248.0 0.00403 205.71475 210.00150
193.0 0.00518 205.74112 210.45956
213.0 0.00469 205.76860 211.03537
243.0 0.00412 205.79709 211.77000
222.0 0.00450 205.82666 212.71700
218.0 0.00459 205.85728 213.94366
195.0 0.00513 205.88895 215.54089
219.0 0.00457 205.92165 217.59593
232.0 0.00431 205.95537 220.23967
214.0 0.00467 205.99002 223.59116
240.0 0.00417 206.02565 227.85226
214.0 0.00467 206.06230 233.16492
222.0 0.00450 206.09981 239.72386
216.0 0.00463 206.13829 247.72054
273.0 0.00366 206.17772 257.26840
253.0 0.00395 206.21793 268.24234
303.0 0.003300 206.25909 280.18542
282.0 0.00355 206.30113 292.38287
302.0 0.003311 206.34392 304.04861
316.0 0.003165 206.38760 314.37564
326.0 0.003067 206.43208 322.47278
313.0 0.003195 206.47731 327.33466
318.0 0.003145 206.52336 328.59650
330.0 0.003030 206.57004 326.49890
306.0 0.003268 206.61758 321.86819
285.0 0.00351 206.66571 315.70706
326.0 0.003067 206.71457 308.99545
297.0 0.003367 206.76413 302.43185
272.0 0.00368 206.81424 296.39963
298.0 0.003356 206.86504 291.11307
245.0 0.00408 206.91641 286.61063
267.0 0.00375 206.96838 282.74072
272.0 0.00368 207.02087 279.00183
290.0 0.003448 207.07396 274.93906
267.0 0.00375 207.12747 270.41882
270.0 0.00370 207.18149 265.39694
236.0 0.00424 207.23601 260.08234
268.0 0.00373 207.29092 254.72751
213.0 0.00469 207.34630 249.52003
223.0 0.00448 207.40199 244.54573
245.0 0.00408 207.45811 239.87593
247.0 0.00405 207.51457 235.66112
228.0 0.00439 207.57133 232.04964
208.0 0.00481 207.62846 229.08144
218.0 0.00459 207.68582 226.87178
244.0 0.00410 207.74344 225.38815
210.0 0.00476 207.80122 224.67732
240.0 0.00417 207.85930 224.80901
235.0 0.00426 207.91750 225.78221
246.0 0.00407 207.97588 227.67900
231.0 0.00433 208.03430 230.52460
202.0 0.00495 208.09293 234.21292
224.0 0.00446 208.15160 238.57727
250.0 0.00400 208.21030 243.25140
244.0 0.00410 208.26903 247.74283
275.0 0.00364 208.32777 251.35783
266.0 0.00376 208.38655 253.34694
260.0 0.00385 208.44525 253.28261
282.0 0.00355 208.50383 251.39798
248.0 0.00403 208.56235 248.49654
246.0 0.00407 208.62071 245.51157
237.0 0.00422 208.67899 243.30046
244.0 0.00410 208.73709 242.42557
247.0 0.00405 208.79491 243.15715
242.0 0.00413 208.85260 245.42567
231.0 0.00433 208.91003 248.86484
250.0 0.00400 208.96712 252.79823
226.0 0.00442 209.02396 256.30356
266.0 0.00376 209.08052 258.41412
258.0 0.00388 209.13672 258.40463
305.0 0.003279 209.19246 256.12195
259.0 0.00386 209.24789 252.01488
247.0 0.00405 209.30287 246.94826
247.0 0.00405 209.35742 241.77039
231.0 0.00433 209.41154 237.13834
226.0 0.00442 209.46512 233.43358
223.0 0.00448 209.51825 230.79395
216.0 0.00463 209.57082 229.14980
217.0 0.00461 209.62288 228.24884
234.0 0.00427 209.67424 227.72327
244.0 0.00410 209.72507 227.16820
208.0 0.00481 209.77522 226.27972
230.0 0.00435 209.82475 224.97517
201.0 0.00498 209.87364 223.35379
227.0 0.00441 209.92180 221.60912
211.0 0.00474 209.96930 219.91060
230.0 0.00435 210.01596 218.37932
224.0 0.00446 210.06192 217.08891
215.0 0.00465 210.10712 216.06343
209.0 0.00478 210.15149 215.29552
225.0 0.00444 210.19499 214.75290
193.0 0.00518 210.23772 214.39127
221.0 0.00452 210.27957 214.16896
210.0 0.00476 210.32053 214.04922
221.0 0.00452 210.36061 214.00475
229.0 0.00437 210.39970 214.01842
213.0 0.00469 210.43796 214.08224
217.0 0.00461 210.47510 214.19696
192.0 0.00521 210.51144 214.37206
213.0 0.00469 210.54672 214.62480
220.0 0.00455 210.58086 214.98123
186.0 0.00538 210.61414 215.47443
221.0 0.00452 210.64627 216.13910
216.0 0.00463 210.67738 217.00816
198.0 0.00505 210.70735 218.10040
209.0 0.00478 210.73622 219.41519
226.0 0.00442 210.76407 220.92325
221.0 0.00452 210.79068 222.55357
216.0 0.00463 210.81622 224.19998
232.0 0.00431 210.84058 225.71780
219.0 0.00457 210.86371 226.98218
227.0 0.00441 210.88570 227.97377
251.0 0.00398 210.90642 228.84138
234.0 0.00427 210.92596 229.87456
213.0 0.00469 210.94429 231.40636
255.0 0.00392 210.96136 233.78474
219.0 0.00457 210.97713 237.23586
243.0 0.00412 210.99168 242.00830
252.0 0.00397 211.00493 248.25488
255.0 0.00392 211.01680 255.94714
236.0 0.00424 211.02748 264.80850
271.0 0.00369 211.03677 274.20380
266.0 0.00376 211.04474 283.18335
280.0 0.00357 211.05142 290.49960
306.0 0.003268 211.05675 294.95715
324.0 0.003086 211.06067 295.80316
331.0 0.003021 211.06317 293.15875
300.0 0.003333 211.06436 287.67957
291.0 0.003436 211.06416 280.52939
291.0 0.003436 211.06261 273.07315
277.0 0.00361 211.05957 266.39975
233.0 0.00429 211.05519 261.18671
224.0 0.00446 211.04936 257.71323
246.0 0.00407 211.04211 255.82181
245.0 0.00408 211.03346 255.03374
257.0 0.00389 211.02338 254.70177
269.0 0.00372 211.01184 254.22546
260.0 0.00385 210.99878 253.32880
239.0 0.00418 210.98439 252.00920
278.0 0.00360 210.96848 250.60834
266.0 0.00376 210.95119 249.69547
256.0 0.00391 210.93236 249.84937
256.0 0.00391 210.91206 251.58630
267.0 0.00375 210.89035 255.25598
247.0 0.00405 210.86719 260.96396
279.0 0.00358 210.84254 268.54065
285.0 0.00351 210.81638 277.56927
291.0 0.003436 210.78879 287.41272
314.0 0.003185 210.75966 297.28085
317.0 0.003155 210.72917 306.12561
354.0 0.002825 210.69714 312.56396
355.0 0.002817 210.66362 315.53326
365.0 0.002740 210.62874 314.73984
357.0 0.002801 210.59232 310.88129
334.0 0.002994 210.55447 305.12204
300.0 0.003333 210.51518 298.47070
301.0 0.003322 210.47430 291.60031
255.0 0.00392 210.43214 285.03223
253.0 0.00395 210.38843 279.19653
254.0 0.00394 210.34334 274.38489
281.0 0.00356 210.29677 270.54251
263.0 0.00380 210.24875 267.40329
290.0 0.003448 210.19934 264.36438
286.0 0.003497 210.14853 260.98709
281.0 0.00356 210.09625 257.15677
237.0 0.00422 210.04265 253.05086
244.0 0.00410 209.98756 248.92496
243.0 0.00412 209.93115 244.97333
263.0 0.00380 209.87335 241.31183
229.0 0.00437 209.81419 238.06229
262.0 0.00382 209.75374 235.31767
242.0 0.00413 209.69186 233.09058
244.0 0.00410 209.62868 231.26372
244.0 0.00410 209.56416 229.63246
242.0 0.00413 209.49834 228.02751
229.0 0.00437 209.43121 226.29312
224.0 0.00446 209.36281 224.45705
225.0 0.00444 209.29324 222.63765
234.0 0.00427 209.22232 220.96501
204.0 0.00490 209.15021 219.53886
211.0 0.00474 209.07692 218.40988
219.0 0.00457 209.00238 217.58528
236.0 0.00424 208.92665 217.03395
229.0 0.00437 208.84984 216.68536
235.0 0.00426 208.77188 216.43300
227.0 0.00441 208.69279 216.18736
214.0 0.00467 208.61256 215.85373
240.0 0.00417 208.53131 215.40033
208.0 0.00481 208.44896 214.85559
211.0 0.00474 208.36568 214.27299
220.0 0.00455 208.28130 213.70338
216.0 0.00463 208.19594 213.18047
209.0 0.00478 208.10963 212.73904
190.0 0.00526 208.02249 212.33977
217.0 0.00461 207.93445 211.99113
212.0 0.00472 207.84547 211.68144
211.0 0.00474 207.75566 211.40918
191.0 0.00524 207.66510 211.17250
215.0 0.00465 207.57375 210.97437
213.0 0.00469 207.48167 210.82028
223.0 0.00448 207.38895 210.71335
215.0 0.00465 207.29543 210.66248
204.0 0.00490 207.20139 210.65767
194.0 0.00515 207.10661 210.71030
231.0 0.00433 207.01141 210.86098
253.0 0.00395 206.91568 211.06703
237.0 0.00422 206.81941 211.39429
225.0 0.00444 206.72278 211.89857
203.0 0.00493 206.62567 212.66528
226.0 0.00442 206.52831 213.79489
189.0 0.00529 206.43059 215.40508
236.0 0.00424 206.33255 217.60635
206.0 0.00485 206.23441 220.46796
192.0 0.00521 206.13602 224.00021
240.0 0.00417 206.03755 228.09436
190.0 0.00526 205.93906 232.54651
222.0 0.00450 205.84044 236.98798
210.0 0.00476 205.74200 240.86522
222.0 0.00450 205.64354 243.58339
254.0 0.00394 205.54529 244.66510
264.0 0.00379 205.44730 244.05862
244.0 0.00410 205.34943 242.20531
226.0 0.00442 205.25203 239.80287
234.0 0.00427 205.15495 237.51714
222.0 0.00450 205.05835 235.84271
265.0 0.00377 204.96231 235.04868
228.0 0.00439 204.86674 235.19542
232.0 0.00431 204.77190 236.17732
238.0 0.00420 204.67770 237.69818
244.0 0.00410 204.58434 239.44095
232.0 0.00431 204.49191 240.82819
255.0 0.00392 204.40031 241.39203
239.0 0.00418 204.30971 240.73442
198.0 0.00505 204.22014 238.81064
238.0 0.00420 204.13181 235.91273
254.0 0.00394 204.04471 232.51707
218.0 0.00459 203.95882 229.09505
211.0 0.00474 203.87440 226.01488
216.0 0.00463 203.79132 223.50262
204.0 0.00490 203.70990 221.67479
218.0 0.00459 203.63014 220.61360
239.0 0.00418 203.55202 220.30714
206.0 0.00485 203.47575 220.70995
210.0 0.00476 203.40129 221.79376
222.0 0.00450 203.32883 223.50427
229.0 0.00437 203.25845 225.85617
222.0 0.00450 203.19020 228.92534
235.0 0.00426 203.12422 232.77417
211.0 0.00474 203.06050 237.37288
256.0 0.00391 202.99927 242.49229
229.0 0.00437 202.94057 247.67281
208.0 0.00481 202.88446 252.24261
230.0 0.00435 202.83101 255.31564
231.0 0.00433 202.78040 256.13678
247.0 0.00405 202.73270 254.43840
253.0 0.00395 202.68797 250.66385
252.0 0.00397 202.64626 245.76508
249.0 0.00402 202.60788 240.61346
240.0 0.00417 202.57268 235.91534
220.0 0.00455 202.54094 232.13724
236.0 0.00424 202.51262 229.46213
231.0 0.00433 202.48782 227.91029
228.0 0.00439 202.46677 227.23682
245.0 0.00408 202.44948 227.06319
232.0 0.00431 202.43604 226.90610
227.0 0.00441 202.42656 226.33458
211.0 0.00474 202.42111 225.09538
217.0 0.00461 202.41983 223.25594
239.0 0.00418 202.42282 221.09743
218.0 0.00459 202.43008 218.90004
219.0 0.00457 202.44180 216.90443
244.0 0.00410 202.45805 215.26410
216.0 0.00463 202.47891 214.07875
226.0 0.00442 202.50441 213.34209
226.0 0.00442 202.53468 212.99199
213.0 0.00469 202.56985 212.91380
228.0 0.00439 202.60994 212.98547
221.0 0.00452 202.65506 213.04936
242.0 0.00413 202.70526 212.97997
225.0 0.00444 202.76070 212.75533
231.0 0.00433 202.82129 212.37749
210.0 0.00476 202.88727 211.91595
213.0 0.00469 202.95847 211.47517
191.0 0.00524 203.03522 211.16522
222.0 0.00450 203.11736 211.08586
206.0 0.00485 203.20500 211.31668
207.0 0.00483 203.29836 211.91827
209.0 0.00478 203.39731 212.92642
211.0 0.00474 203.50194 214.35555
215.0 0.00465 203.61223 216.19337
223.0 0.00448 203.72812 218.37758
219.0 0.00457 203.84996 220.82510
225.0 0.00444 203.97746 223.39389
240.0 0.00417 204.11082 225.88878
212.0 0.00472 204.24989 228.07164
247.0 0.00405 204.39458 229.58858
251.0 0.00398 204.54532 230.27219
224.0 0.00446 204.70163 230.14157
246.0 0.00407 204.86386 229.43082
231.0 0.00433 205.03156 228.45485
203.0 0.00493 205.20493 227.48088
219.0 0.00457 205.38408 226.69337
215.0 0.00465 205.56870 226.19380
230.0 0.00435 205.75885 225.98608
249.0 0.00402 205.95430 225.97586
246.0 0.00407 206.15503 226.00105
226.0 0.00442 206.36119 225.89670
226.0 0.00442 206.57234 225.56407
200.0 0.00500 206.78862 224.94502
227.0 0.00441 207.00964 224.11189
217.0 0.00461 207.23544 223.20457
231.0 0.00433 207.46600 222.40150
220.0 0.00455 207.70087 221.87737
233.0 0.00429 207.94022 221.78159
230.0 0.00435 208.18327 222.24059
217.0 0.00461 208.43044 223.36081
235.0 0.00426 208.68144 225.14954
235.0 0.00426 208.93573 227.59515
263.0 0.00380 209.19345 230.62222
236.0 0.00424 209.45387 234.05539
243.0 0.00412 209.71713 237.66243
237.0 0.00422 209.98302 241.08240
268.0 0.00373 210.25099 243.82376
250.0 0.00400 210.52095 245.34338
249.0 0.00402 210.79216 245.37308
260.0 0.00385 211.06480 243.93895
250.0 0.00400 211.33852 241.45807
245.0 0.00408 211.61240 238.49731
238.0 0.00420 211.88695 235.56430
209.0 0.00478 212.16084 233.02068
209.0 0.00478 212.43423 231.08910
217.0 0.00461 212.70685 229.86134
247.0 0.00405 212.97771 229.28387
241.0 0.00415 213.24706 229.19746
245.0 0.00408 213.51375 229.34489
238.0 0.00420 213.77771 229.44012
225.0 0.00444 214.03864 229.20815
234.0 0.00427 214.29555 228.55766
258.0 0.00388 214.54840 227.51471
226.0 0.00442 214.79639 226.22647
212.0 0.00472 215.03906 224.85310
214.0 0.00467 215.27615 223.52408
226.0 0.00442 215.50655 222.33118
206.0 0.00485 215.73035 221.32780
228.0 0.00439 215.94653 220.53519
232.0 0.00431 216.15459 219.97879
210.0 0.00476 216.35432 219.57167
254.0 0.00394 216.54465 219.31328
193.0 0.00518 216.72542 219.16331
223.0 0.00448 216.89569 219.10042
213.0 0.00469 217.05508 219.09253
217.0 0.00461 217.20314 219.11996
216.0 0.00463 217.33900 219.16779
212.0 0.00472 217.46223 219.22543
189.0 0.00529 217.57227 219.28589
204.0 0.00490 217.66847 219.34431
212.0 0.00472 217.75040 219.39783
204.0 0.00490 217.81752 219.39793
198.0 0.00505 217.86919 219.44974
209.0 0.00478 217.90492 219.48099
222.0 0.00450 217.92433 219.50339
212.0 0.00472 217.92690 219.51640
238.0 0.00420 217.91212 219.51997
206.0 0.00485 217.87965 219.51387
224.0 0.00446 217.82919 219.49869
208.0 0.00481 217.76036 219.47420
222.0 0.00450 217.67268 219.44164
244.0 0.00410 217.56616 219.40280
220.0 0.00455 217.44038 219.36974
215.0 0.00465 217.29536 219.31218
198.0 0.00505 217.13103 219.29919
200.0 0.00500 216.94714 219.29259
223.0 0.00448 216.74391 219.32602
216.0 0.00463 216.52133 219.42296
209.0 0.00478 216.27991 219.61371
234.0 0.00427 216.01958 219.92772
214.0 0.00467 215.74074 220.40787
241.0 0.00415 215.44417 221.05963
259.0 0.00386 215.13000 221.90353
232.0 0.00431 214.79965 222.92535
219.0 0.00457 214.45338 224.08989
223.0 0.00448 214.09204 225.32620
229.0 0.00437 213.71730 226.52754
261.0 0.00383 213.32988 227.57286
244.0 0.00410 212.93182 228.32928
239.0 0.00418 212.52423 228.77481
233.0 0.00429 212.10876 229.01854
233.0 0.00429 211.68794 229.30101
221.0 0.00452 211.26331 229.90952
206.0 0.00485 210.83803 231.09752
248.0 0.00403 210.41418 233.01793
242.0 0.00413 209.99454 235.71663
240.0 0.00417 209.58284 239.07520
243.0 0.00412 209.18150 242.83186
266.0 0.00376 208.79547 246.53537
249.0 0.00402 208.42801 249.59953
255.0 0.00392 208.08324 251.39426
244.0 0.00410 207.76651 251.47853
246.0 0.00407 207.48212 249.82930
233.0 0.00429 207.23610 246.87154
260.0 0.00385 207.03387 243.25653
230.0 0.00435 206.88162 239.70647
239.0 0.00418 206.78635 236.78229
230.0 0.00435 206.75478 234.90187
248.0 0.00403 206.79477 234.33601
205.0 0.00488 206.91425 235.20511
232.0 0.00431 207.12213 237.47659
211.0 0.00474 207.42706 240.95935
271.0 0.00369 207.83966 245.32990
241.0 0.00415 208.36945 250.15213
225.0 0.00444 209.02773 254.97380
284.0 0.00352 209.82729 259.35898
285.0 0.00351 210.77861 262.85129
274.0 0.00365 211.89687 264.99493
277.0 0.00361 213.19424 265.44424
301.0 0.003322 214.68576 264.21857
315.0 0.003175 216.38916 261.77881
255.0 0.00392 218.31812 258.85025
255.0 0.00392 220.49275 256.14093
257.0 0.00389 222.92838 254.21353
221.0 0.00452 225.64496 253.43225
237.0 0.00422 228.66681 253.99522
255.0 0.00392 232.01059 255.94392
202.0 . . .
loop_
_refln_index_h
_refln_index_k
_refln_index_l
_pd_refln_wavelength_id
_refln_observed_status
_refln_F_squared_meas
_refln_F_squared_calc
_refln_phase_calc
_refln_d_spacing
_gsas_i100_meas
1 0 0 1 o 243.586 235.538 0.00 8.20367 38.92
1 0 0 2 o 250.218 235.538 0.00 8.20367 15.10
1 1 0 1 o 6.600 9.692 180.00 4.84241 0.60
1 1 0 2 o 6.648 9.692 180.00 4.84241 0.23
0 0 1 1 o 9.035 8.798 0.00 4.54039 0.38
0 0 1 2 o 9.086 8.798 0.00 4.54039 0.14
2 0 0 1 o 174.344 159.931 180.00 4.10183 6.61
1 0 -1 1 o 177.020 162.060 0.00 4.09340 6.30
2 0 0 2 o 175.891 159.931 180.00 4.10183 2.52
1 0 -1 2 o 174.370 162.060 0.00 4.09340 2.35
1 0 1 1 o 1203.626 1211.074 180.00 3.86180 44.28
1 0 1 2 o 1213.810 1211.074 180.00 3.86180 16.87
0 1 1 1 o -1.824 1.465 0.00 3.62036 0.00
0 1 1 2 o -1.824 1.465 0.00 3.62036 0.00
2 1 0 1 o 499.250 475.627 0.00 3.38599 29.80
1 1 -1 1 o 1781.734 1740.310 180.00 3.38124 100.00
2 1 0 2 o 483.084 475.627 0.00 3.38599 10.92
1 1 -1 2 o 1732.446 1740.310 180.00 3.38124 36.79
1 1 1 1 o 407.692 406.024 180.00 3.24716 22.33
1 1 1 2 o 408.329 406.024 180.00 3.24716 8.45
2 0 -1 1 o 435.958 449.214 0.00 3.15329 9.03
2 0 -1 2 o 424.707 449.214 0.00 3.15329 3.33
0 2 0 1 o 2579.900 2562.979 180.00 2.99949 51.34
0 2 0 2 o 2502.090 2562.979 180.00 2.99949 18.84
2 0 1 1 o 275.409 251.872 180.00 2.94480 5.20
2 0 1 2 o 271.490 251.872 180.00 2.94480 1.94
1 2 0 1 o 174.239 162.026 180.00 2.81710 6.62
1 2 0 2 o 169.872 162.026 180.00 2.81710 2.44
2 1 -1 1 o 32.612 27.025 180.00 2.79119 1.23
2 1 -1 2 o 31.048 27.025 180.00 2.79119 0.45
3 0 0 1 o 872.023 840.296 180.00 2.73456 13.88
3 0 0 2 o 814.503 840.296 180.00 2.73456 4.92
2 1 1 1 o 904.549 919.102 180.00 2.64348 30.35
2 1 1 2 o 851.105 919.102 180.00 2.64348 10.82
0 2 1 1 o 0.394 0.079 0.00 2.50269 0.05
0 2 1 2 o -0.755 0.079 0.00 2.50269 0.01
3 1 0 1 o 1.602 5.162 180.00 2.48824 0.03
3 1 0 2 o 3.560 5.162 180.00 2.48824 0.03
2 2 0 1 o 80.332 74.973 0.00 2.42120 2.32
1 2 -1 1 o 72.429 69.124 180.00 2.41946 1.98
3 0 -1 1 o 1102.901 1077.067 0.00 2.41699 12.60
2 2 0 2 o 75.988 74.973 0.00 2.42120 0.83
1 2 -1 2 o 69.351 69.124 180.00 2.41946 0.72
3 0 -1 2 o 1066.647 1077.067 0.00 2.41699 4.61
1 2 1 1 o 663.117 657.190 0.00 2.36888 18.47
1 2 1 2 o 642.668 657.190 0.00 2.36888 6.78
3 0 1 1 o 5.206 13.289 180.00 2.27451 0.04
0 0 2 1 o 0.707 0.817 0.00 2.27019 0.01
3 0 1 2 o 11.636 13.289 180.00 2.27451 0.04
0 0 2 2 o 0.101 0.817 0.00 2.27019 0.00
3 1 -1 1 o 0.889 12.014 0.00 2.24187 0.06
3 1 -1 2 o 2.165 12.014 0.00 2.24187 0.03
1 0 -2 1 o 115.325 124.469 180.00 2.22763 1.24
1 0 -2 2 o 123.958 124.469 180.00 2.22763 0.50
2 2 -1 1 o 333.267 302.225 180.00 2.17330 7.37
2 2 -1 2 o 331.283 302.225 180.00 2.17330 2.77
1 0 2 1 o 291.772 263.780 0.00 2.15034 3.09
1 0 2 2 o 285.288 263.780 0.00 2.15034 1.14
3 1 1 1 o 92.192 91.892 180.00 2.12678 1.90
0 1 2 1 o 733.061 738.990 180.00 2.12325 15.22
3 1 1 2 o 90.979 91.892 180.00 2.12678 0.71
0 1 2 2 o 717.561 738.990 180.00 2.12325 5.64
2 2 1 1 o 118.847 107.444 0.00 2.10136 2.50
2 2 1 2 o 103.516 107.444 0.00 2.10136 0.83
1 1 -2 1 o 166.839 168.756 0.00 2.08830 3.19
1 1 -2 2 o 166.192 168.756 0.00 2.08830 1.20
4 0 0 1 o 300.375 287.597 180.00 2.05092 2.50
2 0 -2 1 o 383.546 370.371 180.00 2.04670 3.08
4 0 0 2 o 299.377 287.597 180.00 2.05092 0.94
2 0 -2 2 o 369.208 370.371 180.00 2.04670 1.12
1 1 2 1 o 110.595 105.658 180.00 2.02423 2.10
3 2 0 1 o 491.555 478.672 0.00 2.02081 9.43
1 1 2 2 o 107.634 105.658 180.00 2.02423 0.77
3 2 0 2 o 464.706 478.672 0.00 2.02081 3.38
1 3 0 1 o 30.040 33.743 180.00 1.94278 0.54
4 1 0 1 o 94.596 99.041 180.00 1.94064 1.53
1 3 0 2 o 33.695 33.743 180.00 1.94278 0.22
2 1 -2 1 o 0.975 0.977 0.00 1.93706 0.01
4 1 0 2 o 96.155 99.041 180.00 1.94064 0.59
2 1 -2 2 o 0.802 0.977 0.00 1.93706 0.00
2 0 2 1 o 38.411 55.778 0.00 1.93090 0.35
2 0 2 2 o 43.556 55.778 0.00 1.93090 0.15
4 0 -1 1 o 9.052 6.933 180.00 1.91916 0.06
4 0 -1 2 o 15.906 6.933 180.00 1.91916 0.04
3 2 -1 1 o 466.453 476.131 180.00 1.88202 7.24
3 2 -1 2 o 506.453 476.131 180.00 1.88202 2.96
2 1 2 1 o 15.613 12.867 0.00 1.83804 0.25
2 1 2 2 o 13.829 12.867 0.00 1.83804 0.08
0 3 1 1 o 21.136 22.394 180.00 1.83004 0.34
4 1 -1 1 o 64.096 68.282 0.00 1.82790 0.93
0 3 1 2 o 21.937 22.394 180.00 1.83004 0.13
4 1 -1 2 o 71.684 68.282 0.00 1.82790 0.38
4 0 1 1 o 610.838 567.444 0.00 1.82272 3.75
4 0 1 2 o 689.371 567.444 0.00 1.82272 1.59
3 2 1 1 o 1.751 1.152 180.00 1.81236 0.04
0 2 2 1 o 18.408 14.900 180.00 1.81018 0.27
3 0 -2 1 o 58.759 48.567 0.00 1.80881 0.31
3 2 1 2 o 1.730 1.152 180.00 1.81236 0.02
0 2 2 2 o 21.087 14.900 180.00 1.81018 0.11
3 0 -2 2 o 66.919 48.567 0.00 1.80881 0.13
2 3 0 1 o 225.092 203.943 180.00 1.79745 3.15
1 3 -1 1 o 663.954 591.918 0.00 1.79673 8.92
2 3 0 2 o 236.481 203.943 180.00 1.79745 1.25
1 3 -1 2 o 680.785 591.918 0.00 1.79673 3.45
1 2 -2 1 o 64.221 63.240 0.00 1.78838 0.94
1 2 -2 2 o 46.196 63.240 0.00 1.78838 0.27
1 3 1 1 o 130.164 127.925 0.00 1.77573 1.73
1 3 1 2 o 112.135 127.925 0.00 1.77573 0.57
1 2 2 1 o 114.958 139.042 180.00 1.74764 1.67
4 1 1 1 o 51.347 59.112 0.00 1.74400 0.59
1 2 2 2 o 118.834 139.042 180.00 1.74764 0.65
4 1 1 2 o 39.691 59.112 0.00 1.74400 0.17
3 1 -2 1 o 177.894 168.993 180.00 1.73180 2.02
3 1 -2 2 o 171.206 168.993 180.00 1.73180 0.74
4 2 0 1 o 186.400 188.707 0.00 1.69300 2.30
2 2 -2 1 o 275.213 279.352 0.00 1.69062 3.27
3 0 2 1 o 19.297 19.566 180.00 1.69060 0.10
4 2 0 2 o 186.233 188.707 0.00 1.69300 0.87
2 3 -1 1 o 39.694 40.231 0.00 1.68873 0.49
2 2 -2 2 o 270.291 279.352 0.00 1.69062 1.22
3 0 2 2 o 18.968 19.566 180.00 1.69060 0.04
2 3 -1 2 o 36.471 40.231 0.00 1.68873 0.17
2 3 1 1 o 334.082 311.246 0.00 1.65430 3.95
2 3 1 2 o 339.000 311.246 0.00 1.65430 1.51
5 0 0 1 o 0.155 0.153 180.00 1.64073 0.00
5 0 0 2 o 0.286 0.153 180.00 1.64073 0.00
3 1 2 1 o 704.611 689.780 0.00 1.62722 7.32
2 2 2 1 o 50.938 52.649 180.00 1.62358 0.63
3 1 2 2 o 669.035 689.780 0.00 1.62722 2.63
2 2 2 2 o 53.402 52.649 180.00 1.62358 0.25
4 2 -1 1 o 3.141 2.057 0.00 1.61658 0.03
3 3 0 1 o 0.155 0.038 180.00 1.61414 0.00
4 2 -1 2 o 3.760 2.057 0.00 1.61658 0.01
3 3 0 2 o 0.130 0.038 180.00 1.61414 0.00
5 1 0 1 o 296.771 304.473 180.00 1.58261 2.80
5 1 0 2 o 296.147 304.473 180.00 1.58261 1.05
5 0 -1 1 o 257.669 262.894 180.00 1.57809 1.12
4 0 -2 1 o 131.308 131.049 0.00 1.57665 0.54
5 0 -1 2 o 247.028 262.894 180.00 1.57809 0.41
4 0 -2 2 o 112.818 131.049 0.00 1.57665 0.18
4 2 1 1 o 313.935 325.457 180.00 1.55767 3.12
4 2 1 2 o 336.538 325.457 180.00 1.55767 1.26
3 2 -2 1 o 13.942 18.604 180.00 1.54896 0.11
3 2 -2 2 o 25.529 18.604 180.00 1.54896 0.08
3 3 -1 1 o 14.879 12.589 180.00 1.54072 0.15
3 3 -1 2 o 13.774 12.589 180.00 1.54072 0.05
5 1 -1 1 o 55.423 53.319 0.00 1.52617 0.48
4 1 -2 1 o 517.199 483.907 180.00 1.52486 4.08
5 1 -1 2 o 58.354 53.319 0.00 1.52617 0.19
4 1 -2 2 o 532.534 483.907 180.00 1.52486 1.58
0 0 3 1 o 11.501 14.797 0.00 1.51346 0.06
5 0 1 1 o 34.236 45.655 0.00 1.51029 0.14
0 0 3 2 o 11.136 14.797 0.00 1.51346 0.02
1 0 -3 1 o 125.520 153.876 0.00 1.50692 0.55
5 0 1 2 o 38.044 45.655 0.00 1.51029 0.06
1 0 -3 2 o 144.297 153.876 0.00 1.50692 0.24
3 3 1 1 o 97.945 99.331 0.00 1.50180 0.95
0 3 2 1 o 448.781 432.194 0.00 1.50055 4.18
0 4 0 1 o 601.236 565.920 0.00 1.49975 2.41
3 3 1 2 o 105.993 99.331 0.00 1.50180 0.39
0 3 2 2 o 459.953 432.194 0.00 1.50055 1.62
0 4 0 2 o 607.988 565.920 0.00 1.49975 0.92
1 3 -2 1 o 47.658 52.601 180.00 1.48806 0.45
1 3 -2 2 o 49.490 52.601 180.00 1.48806 0.18
1 4 0 1 o 72.830 59.420 0.00 1.47530 0.58
3 2 2 1 o 16.401 15.695 0.00 1.47277 0.14
4 0 2 1 o 6.270 6.267 180.00 1.47240 0.03
1 4 0 2 o 55.385 59.420 0.00 1.47530 0.17
1 0 3 1 o 12.913 14.148 180.00 1.47044 0.06
3 2 2 2 o 15.173 15.695 0.00 1.47277 0.05
4 0 2 2 o 6.056 6.267 180.00 1.47240 0.01
0 1 3 1 o 153.305 152.856 0.00 1.46748 1.31
1 0 3 2 o 14.378 14.148 180.00 1.47044 0.02
5 1 1 1 o 85.672 84.103 0.00 1.46459 0.68
1 3 2 1 o 75.970 74.604 0.00 1.46435 0.68
0 1 3 2 o 155.915 152.856 0.00 1.46748 0.50
1 1 -3 1 o 9.262 9.347 0.00 1.46151 0.07
5 1 1 2 o 82.238 84.103 0.00 1.46459 0.25
1 3 2 2 o 72.557 74.604 0.00 1.46435 0.25
1 1 -3 2 o 8.666 9.347 0.00 1.46151 0.03
2 0 -3 1 o 54.824 50.078 0.00 1.45265 0.20
2 0 -3 2 o 112.403 50.078 0.00 1.45265 0.15
5 2 0 1 o 0.021 0.025 180.00 1.43945 0.00
5 2 0 2 o 0.071 0.025 180.00 1.43945 0.00
4 3 0 1 o 66.868 67.220 0.00 1.43175 0.58
2 3 -2 1 o 0.386 0.421 0.00 1.43031 0.00
4 1 2 1 o 119.027 127.299 0.00 1.42996 0.89
4 3 0 2 o 61.194 67.220 0.00 1.43175 0.20
1 1 3 1 o 148.814 163.589 0.00 1.42817 1.23
2 3 -2 2 o 0.345 0.421 0.00 1.43031 0.00
4 1 2 2 o 109.462 127.299 0.00 1.42996 0.31
1 1 3 2 o 141.204 163.589 0.00 1.42817 0.44
0 4 1 1 o 6.092 6.952 180.00 1.42407 0.06
0 4 1 2 o 11.927 6.952 180.00 1.42407 0.04
2 1 -3 1 o 207.039 203.993 0.00 1.41185 1.45
2 4 0 2 o 40.801 28.795 180.00 1.40855 0.11
1 4 -1 2 o 24.854 17.258 0.00 1.40821 0.07
2 4 0 1 o 34.015 28.795 180.00 1.40855 0.25
2 1 -3 2 o 242.335 203.993 0.00 1.41185 0.64
1 4 -1 1 o 20.602 17.258 0.00 1.40821 0.15
1 4 1 1 o 254.838 230.002 180.00 1.39802 1.88
5 2 -1 1 o 186.863 171.128 0.00 1.39659 1.37
4 2 -2 1 o 87.534 82.653 180.00 1.39559 0.62
1 4 1 2 o 240.625 230.002 180.00 1.39802 0.67
5 2 -1 2 o 181.471 171.128 0.00 1.39659 0.50
4 2 -2 2 o 88.292 82.653 180.00 1.39559 0.24
2 0 3 1 o 318.506 306.707 180.00 1.38926 1.17
2 3 2 1 o 13.740 13.268 180.00 1.38903 0.12
2 0 3 2 o 312.852 306.707 180.00 1.38926 0.43
2 3 2 2 o 13.600 13.268 180.00 1.38903 0.04
4 3 -1 1 o 94.933 92.187 180.00 1.38464 0.75
4 3 -1 2 o 130.956 92.187 180.00 1.38464 0.38
5 0 -2 1 o 39.207 71.793 0.00 1.37537 0.14
5 0 -2 2 o 39.738 71.793 0.00 1.37537 0.05
6 0 0 1 o 59.242 35.444 0.00 1.36728 0.19
3 0 -3 1 o 0.458 0.295 0.00 1.36446 0.00
6 0 0 2 o 55.974 35.444 0.00 1.36728 0.07
3 0 -3 2 o 0.373 0.295 0.00 1.36446 0.00
2 4 -1 1 o 138.382 117.913 0.00 1.35437 0.96
2 1 3 1 o 4.681 4.043 0.00 1.35344 0.03
0 2 3 1 o 13.585 12.434 180.00 1.35120 0.11
2 4 -1 2 o 127.292 117.913 0.00 1.35437 0.34
2 1 3 2 o 4.068 4.043 0.00 1.35344 0.01
5 2 1 1 o 28.867 32.562 180.00 1.34894 0.21
0 2 3 2 o 10.713 12.434 180.00 1.35120 0.03
4 3 1 1 o 14.149 15.492 180.00 1.34708 0.10
1 2 -3 1 o 135.727 144.075 180.00 1.34654 0.97
5 2 1 2 o 32.232 32.562 180.00 1.34894 0.09
4 3 1 2 o 15.074 15.492 180.00 1.34708 0.04
1 2 -3 2 o 136.709 144.075 180.00 1.34654 0.37
3 3 -2 1 o 109.499 120.745 0.00 1.34143 0.78
5 1 -2 1 o 1.963 2.089 180.00 1.34059 0.01
3 3 -2 2 o 123.019 120.745 0.00 1.34143 0.33
5 1 -2 2 o 2.167 2.089 180.00 1.34059 0.00
2 4 1 1 o 37.124 36.103 180.00 1.33641 0.26
6 0 -1 1 o 316.028 341.810 180.00 1.33475 0.93
2 4 1 2 o 31.270 36.103 180.00 1.33641 0.08
6 1 0 1 o 0.484 0.546 0.00 1.33309 0.00
6 0 -1 2 o 290.171 341.810 180.00 1.33475 0.32
3 1 -3 1 o 228.884 272.171 0.00 1.33048 1.36
6 1 0 2 o 0.468 0.546 0.00 1.33309 0.00
3 1 -3 2 o 197.307 272.171 0.00 1.33048 0.45
4 2 2 1 o 9.830 9.392 0.00 1.32174 0.08
1 2 3 1 o 13.153 14.799 0.00 1.32032 0.10
4 2 2 2 o 8.957 9.392 0.00 1.32174 0.03
1 2 3 2 o 16.129 14.799 0.00 1.32032 0.04
3 4 0 1 o 248.328 184.749 180.00 1.31497 1.63
3 4 0 2 o 224.300 184.749 180.00 1.31497 0.56
2 2 -3 1 o 40.031 31.486 180.00 1.30740 0.25
2 2 -3 2 o 61.186 31.486 180.00 1.30740 0.14
6 1 -1 1 o 5.410 2.201 180.00 1.30289 0.03
6 1 -1 2 o 3.363 2.201 180.00 1.30289 0.01
3 3 2 1 o 369.970 348.972 180.00 1.29103 2.46
5 0 2 1 o 117.063 117.153 180.00 1.28846 0.33
3 3 2 2 o 345.644 348.972 180.00 1.29103 0.87
3 0 3 1 o 57.415 59.466 180.00 1.28727 0.18
5 0 2 2 o 98.948 117.153 180.00 1.28846 0.11
6 0 1 1 o 20.312 24.171 180.00 1.28507 0.06
3 0 3 2 o 50.446 59.466 180.00 1.28727 0.06
6 0 1 2 o 26.661 24.171 180.00 1.28507 0.03
3 4 -1 1 o 221.458 170.755 0.00 1.27435 1.35
3 4 -1 2 o 180.095 170.755 0.00 1.27435 0.42
5 3 0 1 o 156.603 169.242 0.00 1.26841 1.01
5 3 0 2 o 182.958 169.242 0.00 1.26841 0.44
2 2 3 1 o 270.214 268.819 0.00 1.26061 1.69
4 0 -3 1 o 40.280 39.426 180.00 1.25980 0.11
5 1 2 1 o 25.564 25.085 180.00 1.25973 0.14
3 1 3 1 o 0.751 0.748 180.00 1.25862 0.01
2 2 3 2 o 271.628 268.819 0.00 1.26061 0.64
4 0 -3 2 o 40.036 39.426 180.00 1.25980 0.04
5 1 2 2 o 25.419 25.085 180.00 1.25973 0.05
6 1 1 1 o 250.043 246.979 0.00 1.25656 1.33
3 1 3 2 o 0.713 0.748 180.00 1.25862 0.00
6 1 1 2 o 253.954 246.979 0.00 1.25656 0.51
3 4 1 1 o 6.451 6.075 0.00 1.25207 0.05
0 4 2 1 o 8.303 8.731 0.00 1.25134 0.05
5 2 -2 1 o 53.736 66.992 180.00 1.25021 0.32
3 4 1 2 o 4.475 6.075 0.00 1.25207 0.01
0 4 2 2 o 6.511 8.731 0.00 1.25134 0.01
5 2 -2 2 o 51.120 66.992 180.00 1.25021 0.12
6 2 0 1 o 36.321 39.848 180.00 1.24412 0.22
1 4 -2 1 o 29.322 31.809 180.00 1.24407 0.19
3 2 -3 1 o 1.329 1.254 180.00 1.24200 0.01
6 2 0 2 o 37.167 39.848 180.00 1.24412 0.09
1 4 -2 2 o 29.560 31.809 180.00 1.24407 0.07
3 2 -3 2 o 1.249 1.254 180.00 1.24200 0.00
5 3 -1 1 o 35.026 34.922 180.00 1.23879 0.21
4 3 -2 1 o 255.681 249.896 0.00 1.23810 1.45
5 3 -1 2 o 33.315 34.922 180.00 1.23879 0.08
4 3 -2 2 o 242.178 249.896 0.00 1.23810 0.52
1 4 2 1 o 79.519 65.798 0.00 1.23012 0.48
4 1 -3 2 o 8.476 7.001 180.00 1.23291 0.01
4 1 -3 1 o 6.225 7.001 180.00 1.23291 0.03
1 4 2 2 o 112.166 65.798 0.00 1.23012 0.25
6 2 -1 1 o 226.290 253.962 0.00 1.21946 1.22
6 2 -1 2 o 237.104 253.962 0.00 1.21946 0.48
4 4 0 1 o 107.222 85.640 180.00 1.21060 0.61
2 4 -2 1 o 182.134 143.138 180.00 1.20973 1.01
6 0 -2 1 o 17.555 13.945 0.00 1.20850 0.04
4 4 0 2 o 102.979 85.640 180.00 1.21060 0.22
0 3 3 1 o 91.154 79.318 180.00 1.20679 0.54
2 4 -2 2 o 163.985 143.138 180.00 1.20973 0.35
6 0 -2 2 o 14.836 13.945 0.00 1.20850 0.01
5 3 1 1 o 64.649 61.802 180.00 1.20517 0.38
0 3 3 2 o 84.602 79.318 180.00 1.20679 0.19
1 3 -3 1 o 4.161 3.745 180.00 1.20346 0.02
5 3 1 2 o 93.950 61.802 180.00 1.20517 0.20
1 3 -3 2 o 5.903 3.745 180.00 1.20346 0.01
1 5 0 1 o 16.098 15.340 0.00 1.18717 0.09
4 3 2 1 o 80.153 81.458 180.00 1.18566 0.45
6 1 -2 1 o 66.031 67.209 0.00 1.18470 0.31
1 3 3 1 o 96.989 98.838 180.00 1.18464 0.57
2 4 2 1 o 32.436 33.265 0.00 1.18444 0.20
1 5 0 2 o 14.839 15.340 0.00 1.18717 0.03
5 2 2 1 o 101.918 106.480 0.00 1.18386 0.54
3 2 3 1 o 48.380 52.291 0.00 1.18293 0.27
4 3 2 2 o 75.060 81.458 180.00 1.18566 0.16
6 1 -2 2 o 60.659 67.209 0.00 1.18470 0.11
1 3 3 2 o 89.213 98.838 180.00 1.18464 0.20
4 4 -1 1 o 0.438 0.478 180.00 1.18172 0.00
2 4 2 2 o 29.786 33.265 0.00 1.18444 0.07
6 2 1 1 o 20.202 22.551 0.00 1.18123 0.10
5 2 2 2 o 94.497 106.480 0.00 1.18386 0.19
3 2 3 2 o 45.347 52.291 0.00 1.18293 0.10
4 0 3 1 o 39.990 45.394 0.00 1.17970 0.10
4 4 -1 2 o 0.452 0.478 180.00 1.18172 0.00
6 2 1 2 o 22.353 22.551 0.00 1.18123 0.04
4 0 3 2 o 47.593 45.394 0.00 1.17970 0.04
2 3 -3 1 o 137.713 126.201 180.00 1.17527 0.73
2 3 -3 2 o 124.568 126.201 180.00 1.17527 0.25
7 0 0 1 o 239.938 239.974 0.00 1.17195 0.54
7 0 0 2 o 203.596 239.974 0.00 1.17195 0.18
4 2 -3 1 o 25.288 31.552 0.00 1.16151 0.13
0 5 1 1 o 11.463 12.129 0.00 1.15998 0.06
4 2 -3 2 o 30.463 31.552 0.00 1.16151 0.06
4 4 1 1 o 147.079 145.845 0.00 1.15811 0.80
4 1 3 1 o 124.456 120.325 180.00 1.15753 0.62
0 5 1 2 o 12.490 12.129 0.00 1.15998 0.03
4 4 1 2 o 148.691 145.845 0.00 1.15811 0.31
4 1 3 2 o 130.286 120.325 180.00 1.15753 0.24
3 4 -2 1 o 4.026 3.716 0.00 1.15452 0.02
7 0 -1 1 o 1.763 1.532 180.00 1.15410 0.00
5 0 -3 1 o 124.281 106.717 180.00 1.15259 0.26
3 4 -2 2 o 4.345 3.716 0.00 1.15452 0.01
2 5 0 1 o 102.810 85.313 0.00 1.15155 0.50
1 5 -1 1 o 244.998 204.289 180.00 1.15136 1.16
7 0 -1 2 o 1.888 1.532 180.00 1.15410 0.00
7 1 0 1 o 103.560 92.824 0.00 1.15021 0.46
5 0 -3 2 o 116.245 106.717 180.00 1.15259 0.09
2 5 0 2 o 96.667 85.313 0.00 1.15155 0.18
1 5 -1 2 o 234.069 204.289 180.00 1.15136 0.42
7 1 0 2 o 116.722 92.824 0.00 1.15021 0.20
1 5 1 1 o 51.328 37.550 180.00 1.14577 0.24
1 5 1 2 o 61.991 37.550 180.00 1.14577 0.11
2 3 3 1 o 1.690 2.261 180.00 1.14093 0.01
2 3 3 2 o 5.760 2.261 180.00 1.14093 0.01
6 0 2 1 o 1.975 1.037 180.00 1.13726 0.00
0 0 4 1 o 106.101 130.879 180.00 1.13510 0.27
1 0 -4 1 o 109.357 132.666 180.00 1.13501 0.26
6 0 2 2 o 0.912 1.037 180.00 1.13726 0.00
7 1 -1 1 o 12.782 13.201 180.00 1.13331 0.07
5 3 -2 1 o 1.255 1.289 0.00 1.13320 0.01
0 0 4 2 o 120.762 130.879 180.00 1.13510 0.11
1 0 -4 2 o 121.632 132.666 180.00 1.13501 0.11
5 1 -3 1 o 67.720 76.508 180.00 1.13189 0.29
7 1 -1 2 o 9.944 13.201 180.00 1.13331 0.02
5 3 -2 2 o 1.033 1.289 0.00 1.13320 0.00
5 1 -3 2 o 60.984 76.508 180.00 1.13189 0.10
6 3 0 1 o 0.219 0.347 0.00 1.12866 0.00
3 3 -3 1 o 156.553 187.211 180.00 1.12708 0.77
6 3 0 2 o 0.357 0.347 0.00 1.12866 0.00
3 3 -3 2 o 228.818 187.211 180.00 1.12708 0.41
3 4 2 1 o 10.872 6.251 180.00 1.12192 0.05
2 5 -1 1 o 22.557 12.672 180.00 1.12137 0.11
6 2 -2 1 o 13.144 7.982 180.00 1.12094 0.06
3 4 2 2 o 6.197 6.251 180.00 1.12192 0.01
2 5 -1 2 o 12.858 12.672 180.00 1.12137 0.02
6 2 -2 2 o 8.463 7.982 180.00 1.12094 0.02
6 1 2 1 o 87.835 80.018 180.00 1.11735 0.39
7 0 1 1 o 25.274 23.796 180.00 1.11636 0.06
0 1 4 2 o 2.708 2.193 0.00 1.11531 0.00
1 1 -4 2 o 31.202 24.202 180.00 1.11523 0.06
0 1 4 1 o 2.323 2.193 0.00 1.11531 0.01
1 1 -4 1 o 25.971 24.202 180.00 1.11523 0.13
1 0 4 2 o 1.407 1.150 180.00 1.11405 0.00
2 5 1 1 o 140.586 122.014 180.00 1.11111 0.67
2 0 -4 2 o 0.232 0.199 0.00 1.11381 0.00
6 1 2 2 o 86.012 80.018 180.00 1.11735 0.15
1 0 4 1 o 1.307 1.150 180.00 1.11405 0.00
2 0 -4 1 o 0.231 0.199 0.00 1.11381 0.00
6 3 -1 1 o 1.769 1.751 0.00 1.11016 0.01
7 0 1 2 o 28.163 23.796 180.00 1.11636 0.02
2 5 1 2 o 132.010 122.014 180.00 1.11111 0.24
6 3 -1 2 o 1.577 1.751 0.00 1.11016 0.00
5 4 0 1 o 0.158 0.219 0.00 1.10697 0.00
5 4 0 2 o -0.072 0.219 0.00 1.10697 0.00
3 5 0 1 o 0.304 0.164 0.00 1.09870 0.00
4 2 3 1 o 61.648 43.209 180.00 1.09784 0.28
7 1 1 1 o 3.571 2.656 0.00 1.09752 0.02
3 5 0 2 o 0.173 0.164 0.00 1.09870 0.00
1 1 4 1 o 87.921 88.584 180.00 1.09532 0.43
4 2 3 2 o 42.378 43.209 180.00 1.09784 0.07
2 1 -4 1 o 54.681 56.051 180.00 1.09510 0.25
7 1 1 2 o 2.539 2.656 0.00 1.09752 0.00
1 1 4 2 o 85.876 88.584 180.00 1.09532 0.16
2 1 -4 2 o 56.408 56.051 180.00 1.09510 0.10
7 2 0 1 o 191.970 174.100 180.00 1.09159 0.86
